29
0003
 C         1.415894340895      0.187681933603     -0.087085002004
 C        -0.110224787651      0.380138958239      0.014017443074
 C        -0.887787239595     -0.597598309330     -0.892072013057
 O        -1.058742721193     -1.818502552599     -0.156478045779
 N        -1.711201445009     -2.837600313921     -0.907681510211
 O        -2.021664626830     -2.569493583357     -2.050069285350
 O        -1.866711070251     -3.847782066960     -0.273641461795
 C        -0.612308573413      0.337586920331      1.473333128214
 O         0.082711974934     -0.717593931819      2.149205406667
 N        -0.325531194687     -0.872955540166      3.506730194621
 O        -1.200164610800     -0.132580056838      3.908147009974
 O         0.280403549131     -1.743581572543      4.071959388766
 C        -0.420566221527      1.813831229990     -0.460479161427
 O        -0.173869800942      1.839429840245     -1.875535412277
 N        -0.420556660796      3.119302797474     -2.474183816600
 O        -0.208154907531      3.118074907370     -3.656415938520
 O        -0.797156969294      4.002954659966     -1.735917452902
 O         1.682535698357     -1.221901855409     -0.081725023549
 N         3.071777087667     -1.525803193259     -0.153921223282
 O         3.283454718683     -2.709176652114     -0.184998386275
 O         3.842354296578     -0.587581290974     -0.173687778742
 H         1.924095520541      0.670455646243      0.752093520703
 H         1.785864334595      0.619847790674     -1.020452931594
 H        -1.872203430511     -0.186235273164     -1.138856724244
 H        -0.351328350359     -0.785913919921     -1.822903549401
 H        -0.396808253639      1.285735589531      1.978748085333
 H        -1.690671667934      0.164357639845      1.509454789423
 H        -1.465147370320      2.072693998796     -0.261365163391
 H         0.221808380902      2.542208200066      0.043880913627
