21
0008
 N        -2.282781205011      0.584802823394      1.193346710684
 C        -1.590996494793      0.184448608947      0.137256098564
 C        -2.025457564700     -0.201121646320     -1.150974504514
 N        -3.450606557183     -0.189797221410     -1.478312879660
 O        -4.219737507536      0.170518895901     -0.566642142137
 O        -3.800655008281     -0.522777377841     -2.593079306875
 N        -1.212676928844     -0.601858984751     -2.136039701349
 N         0.083465841129     -0.662889976674     -2.000980219829
 C         0.586163365006     -0.297014227154     -0.798289430462
 C         1.880854907392     -0.234704577482     -0.260224224763
 N         3.111420346912     -0.614099510631     -0.896356183870
 O         4.067150110880     -0.821909905021     -0.148105809256
 O         3.105942336810     -0.707670106591     -2.119205312798
 C         1.704162129097      0.198422489241      1.066461529485
 N         2.727681078616      0.498861986280      2.070170573679
 O         2.622216724934     -0.076985469117      3.143746887356
 O         3.566533953136      1.325637707680      1.743098328358
 N         0.437552630873      0.413504180586      1.393638648675
 N        -0.230245824914      0.108133728355      0.252393823142
 H        -1.788844896697      0.813096839853      2.047987449535
 H        -3.291041436827      0.633401742756      1.100109666036
