22
0014
 O         0.443266015824      1.545648639640      1.734741621299
 N        -0.310811541510      1.386391764919      0.769423560454
 O        -1.308270519508      2.070367049907      0.518896069610
 N         0.001095803941      0.383601553146     -0.102851814051
 C         0.943616830176     -0.640814357100      0.363921541483
 C         2.367006654725     -0.257312814839      0.124915703310
 N         3.195238949675     -0.840574983667     -0.719366601514
 N         4.373923208365     -0.162152900531     -0.617198657125
 N         4.284529620765      0.800497017634      0.244652811756
 N         3.026115202411      0.752754131764      0.727646019325
 C        -0.924365220452      0.141379603908     -1.211381208300
 C        -2.154554383154     -0.590583786579     -0.780691964860
 N        -2.402248393576     -1.870701863283     -0.981357980893
 N        -3.601589061104     -2.120047977358     -0.381878159783
 N        -4.077354849807     -1.050172110291      0.171382929381
 N        -3.179288858865     -0.073133122825     -0.071605544365
 H         0.732625946411     -1.549954015914     -0.200647740505
 H         0.758548197664     -0.838313232955      1.423184211641
 H         2.681107147851      1.421582410108      1.405072926857
 H        -0.389197726919     -0.473173503683     -1.936116900989
 H        -1.163607190785      1.099880177976     -1.673222818254
 H        -3.295785832128      0.864632320024      0.292281995522
