22
0020
 N         1.338485685164     -0.429109257212     -3.557776671665
 N         1.482004986200     -0.987410741275     -2.573992950511
 N         1.631392132765     -1.718013995177     -1.589362653935
 C         1.881932867569     -1.043286713325     -0.307342455079
 C         0.619378223864     -0.969006509343      0.581133753624
 N         0.990101943759     -0.966353495900      2.016977176149
 N         1.708708502200     -0.025722740977      2.388007860646
 N         2.363392983551      0.777567069621      2.866447405328
 C        -0.300890217499      0.230787444278      0.280050814502
 C        -1.584481432988      0.181671820863      1.126357559999
 N        -2.384949063347      1.402106394636      0.942023075077
 N        -3.219254214006      1.366953926129      0.026601604929
 N        -4.028799705440      1.471820650761     -0.769847501372
 N        -0.651973142719      0.194829093425     -1.153716484649
 N        -0.743885026402      1.297185279437     -1.713150849686
 N        -0.853142125026      2.238750064015     -2.344667254276
 H         2.313979101211     -0.043979993784     -0.449493938920
 H         2.615621789312     -1.658783438801      0.219233638392
 H         0.060263393711     -1.897246271237      0.442666858055
 H         0.237138619150      1.159586322414      0.516212099208
 H        -1.321755869719      0.137777859433      2.184443376033
 H        -2.153369431312     -0.719922767982      0.869195538151
