28
0022
 O        -3.535702928720     -2.148509771921     -2.286966319557
 N        -2.959985401559     -1.831212212451     -1.252333425964
 O        -3.177820643165     -2.254636972876     -0.123236548753
 N        -1.989968921287     -0.840277570291     -1.394002021536
 C        -0.975898909370     -0.736260690067     -0.355918385934
 C        -0.350973573616      0.661188675824     -0.388542619058
 O        -1.385824648260      1.650395513674     -0.206759560266
 N        -1.937485125548      2.181098069516     -1.421471235252
 O        -2.854570770751      2.923502489938     -1.207291543785
 O        -1.423475520396      1.851182352909     -2.470081727484
 C         0.666615329174      0.950209554979      0.722498480598
 C         2.047778125394      0.322257928903      0.546923144831
 N         1.968448216110     -1.129046302909      0.665405445611
 N         3.119941048876     -1.850161285784      0.336232172935
 O         3.905269033930     -1.320038892209     -0.441258588716
 O         3.197311383912     -2.969412293973      0.825763315781
 O         0.076203568494      0.499502445094      1.962791823474
 N         0.364391161227      1.328184870166      3.112470524142
 O        -0.154209745956      0.901947532548      4.106011761429
 O         1.067175498999      2.297900620060      2.937905322127
 H        -1.707625876024     -0.808456212938     -2.367668848201
 H        -0.187856141736     -1.491145854008     -0.460931215380
 H        -1.481009194070     -0.888265336280      0.596904376873
 H         0.144082450502      0.850660883193     -1.344267480834
 H         0.793059819948      2.032999654839      0.769336340507
 H         2.442973069538      0.558742834605     -0.441982689727
 H         2.727656279981      0.755951004248      1.291846567011
 H         1.601602414374     -1.498501034789      1.537722935128
