20
0036
 C         0.857405907454     -1.187196306849     -0.572342296181
 C         1.657215473016     -0.304493215713      0.138534092607
 C         1.117509396701      0.824344649138      0.737406085835
 C        -0.239294862674      1.078745349557      0.627167180078
 C        -1.131975036404      0.207980455360     -0.094627993497
 C        -0.500687193527     -0.942763036769     -0.689071159552
 N        -1.260908073265     -1.928779164973     -1.456725408583
 O        -0.652402319750     -2.881108562242     -1.931712299566
 O        -2.483779956106     -1.765592636270     -1.597289406469
 N        -2.437581149221      0.447847078794     -0.203739664800
 N        -0.715149506136      2.291908916600      1.291436068610
 O        -1.922500971553      2.575124408153      1.229024939292
 O         0.105698556760      2.981753756633      1.885696646209
 N         3.090192471261     -0.567800606613      0.258351945749
 O         3.525852758131     -1.579904844123     -0.288167328527
 O         3.761297751493      0.240936771715      0.897413560839
 H         1.285815739635     -2.065035233533     -1.036350065025
 H         1.747786978483      1.507673732903      1.289901251476
 H        -2.998644098909     -0.212648225656     -0.728256519371
 H        -2.805751864074      1.279106724061      0.243050377500
