22
0045
 N         2.594482476013     -0.685808352932      0.588893385936
 C         1.347813999256     -0.304517872395      0.313530606218
 C         0.214990449357     -1.138925191319      0.146592969791
 N         0.343781154356     -2.555007243245      0.413266009325
 O         1.490735836259     -3.037155541192      0.436588337831
 O        -0.669917136982     -3.209089485006      0.622495993388
 C        -1.058818827585     -0.584329265463     -0.203690885184
 N        -2.181097062648     -1.527832315132     -0.488133355684
 O        -3.057461374347     -1.593312154855      0.352608365720
 O        -2.093759796927     -2.126891491132     -1.545804692520
 C        -1.297304301265      0.762871271812     -0.341186217620
 N        -2.581183927593      1.311021189434     -0.761753626686
 O        -2.799802804146      2.473439186834     -0.431645324542
 O        -3.329190040315      0.593172798103     -1.418919510712
 C        -0.204764109690      1.660758682233     -0.100590394825
 N        -0.131972279716      2.980662651061     -0.146520417748
 O         1.188203090232      3.293051084350      0.113069013324
 N         1.932169221521      2.100609496823      0.324123835144
 O         3.130595909685      2.155569526243      0.578403591778
 C         1.063065379480      1.091563629952      0.188616385907
 H         3.309978695158      0.019949392099      0.722989327643
 H         2.789655449896     -1.679899996273      0.637266603516
