23
0048
 C         2.147998879292     -1.951971481910      0.579680474962
 C         0.978854945892     -1.055460840060      0.268654399171
 C        -0.263992169250     -1.599051909969     -0.070459399701
 C        -1.354708722274     -0.789513882250     -0.354750268128
 C        -1.245236511258      0.599270897577     -0.337648789007
 C        -0.017003581113      1.159720665161     -0.011560416899
 C         1.068268291143      0.340850936088      0.295410064367
 N         2.377869081010      0.963687953796      0.576644306191
 O         2.921934163495      0.647886549334      1.626288311660
 O         2.821263119271      1.710447197926     -0.286258424807
 N         0.132116072112      2.630712040064      0.021401585809
 O         0.654040572258      3.095968140689      1.024691012340
 O        -0.283610034753      3.241429300898     -0.952092628522
 N        -2.386178851464      1.480047699908     -0.678407908075
 O        -2.772603980532      2.222388036946      0.211010160762
 O        -2.810974927581      1.386276270965     -1.817709729008
 N        -2.650448830466     -1.451537117340     -0.604604124500
 O        -2.608369829092     -2.580541852765     -1.080542586792
 O        -3.658599606003     -0.834397815629     -0.283968230329
 H         1.915106706276     -2.982226115915      0.302403870605
 H         3.047410260324     -1.643247590931      0.038095161062
 H         2.386285101365     -1.917509826685      1.646729577505
 H        -0.399420148651     -2.673027255897     -0.113006418667
