23
0049
 C        -2.355872167421      0.912848531992      0.900653295233
 C        -1.083268256799      0.253783456178      0.436232350785
 C        -0.894731401479     -1.140356120717      0.398252764936
 N        -1.963755914449     -2.071875227389      0.819340079993
 O        -3.127109579237     -1.712337893070      0.665397990521
 O        -1.605630531784     -3.153803388043      1.273471587663
 C         0.284130289397     -1.743260111689     -0.020525045372
 C         1.326636963330     -0.951804812012     -0.470671809511
 N         2.586805771355     -1.615068106647     -0.850134890847
 O         3.612561822195     -0.952080179293     -0.751973577931
 O         2.507192338924     -2.786238098154     -1.202323488615
 C         1.189317007216      0.432867549862     -0.493742904221
 N         2.246818202998      1.313129548639     -1.042060997985
 O         2.744935760221      2.104452303726     -0.255456702384
 O         2.488709224257      1.179913930887     -2.229555228437
 C         0.012609220706      1.005428882432     -0.021196205558
 N        -0.076280544413      2.484238825806     -0.057571705894
 O        -0.002972095211      2.999320470254     -1.165964321700
 O        -0.216691693955      3.059661860682      1.012855263986
 H        -3.127045453541      0.812973614708      0.131340888476
 H        -2.195462578175      1.965372467329      1.121826200947
 H        -2.742758985165      0.422230196629      1.795450621342
 H         0.391862601027     -2.819397702111      0.006155834573
