21
0051
 C        -2.214567139698      1.083351757088      0.347042486120
 C        -0.882263002187      0.425234428305      0.098829553539
 C        -0.690619153035     -0.968681961064      0.181477787883
 C         0.545515655816     -1.590941162036      0.055035512270
 C         1.655476935875     -0.798889978375     -0.191279622287
 C         1.552647173298      0.579256945387     -0.292237554623
 C         0.295303695296      1.155783370945     -0.158454997936
 N         0.260016993700      2.624673675844     -0.320339572615
 O        -0.737667598224      3.116399470705     -0.841236363156
 O         1.250799671724      3.248318558746      0.049234125811
 N         2.974901222250     -1.435516850858     -0.343263580732
 O         3.931679515755     -0.696924693648     -0.558021402351
 O         3.021480640519     -2.658252157524     -0.244221669715
 N        -1.831573940077     -1.882546103494      0.400799722535
 O        -2.913297579694     -1.571123623497     -0.090537416978
 O        -1.606630457468     -2.910136174321      1.033759977852
 H        -2.825275120128      0.482557415463      1.019550835075
 H        -2.083275798992      2.080680454041      0.764546531244
 H        -2.766460454839      1.189825637277     -0.591470338543
 H         0.637146499231     -2.664509591966      0.148879979650
 H         2.426662240878      1.191540582985     -0.468193993041
