21
0053
 C         2.833894702578     -0.397235832328     -1.317867657274
 C         1.463764979284     -0.195224140939     -0.724932275809
 C         0.677472913480      0.901953732740     -1.083344791222
 C        -0.593351182029      1.076397150792     -0.544904871729
 N        -1.324816601578      2.301594021247     -0.923875372148
 O        -0.992116384232      2.842032181683     -1.974590970407
 O        -2.189587022966      2.701737131772     -0.153420707202
 C        -1.136344797537      0.156569885430      0.352430949317
 N        -2.494352294453      0.340698195608      0.917297162812
 O        -2.544610339425      0.676395065648      2.088866850081
 O        -3.422522856893      0.137035173411      0.152582649651
 C        -0.349994849290     -0.941773806563      0.700979781568
 N        -0.859679858811     -1.994275413342      1.602108141800
 O        -0.022692034883     -2.683521469682      2.177469087757
 O        -2.075539596293     -2.119305867200      1.689301962208
 C         0.930595587792     -1.111043843183      0.184883340211
 H         3.492648991280     -0.925694669098     -0.622989165068
 H         3.298878978760      0.558132320569     -1.576681279182
 H         2.772382456445     -0.994849200362     -2.235743026982
 H         1.039330205847      1.647777326115     -1.781025628685
 H         1.496639002925     -1.977197942316      0.506455820305
