25
0056
 C        -2.117428715207     -1.719953404931     -0.445874829674
 C        -0.973490598790     -0.769200358787     -0.185482248563
 C        -0.838073283786      0.440489018693     -0.865095795482
 N        -1.898741632125      0.712597598159     -1.864919315022
 O        -1.606186816449      0.489537865039     -3.031214555390
 O        -2.989969735242      1.031184167432     -1.420690464337
 C         0.239230921633      1.310286950046     -0.697577837542
 N         0.238405090702      2.574219071116     -1.424822836680
 O        -0.830994291131      2.972432328733     -1.872119347337
 O         1.306141991208      3.190274424952     -1.554337831293
 C         1.304716318203      0.987614613096      0.209372227122
 N         2.374024519977      1.774384767314      0.360463876146
 C         1.120196986458     -0.209363942909      0.980818881819
 N         2.057304824535     -0.563350828162      2.040504006106
 O         1.673874787855     -1.348422570195      2.900100872105
 O         3.188602102202     -0.056936004421      2.032082799854
 C         0.015561607674     -1.032016083378      0.761230187973
 N        -0.141813568169     -2.318072260310      1.482340483479
 O        -1.024120760847     -2.359870585281      2.324600754779
 O         0.556952076497     -3.241838474229      1.089948958854
 H        -1.814228460607     -2.753010412126     -0.266393765737
 H        -2.966928789762     -1.493034589432      0.205471843059
 H        -2.452509583725     -1.651986759000     -1.482432582853
 H         3.112464869119      1.460332485233      0.977011427546
 H         2.466910135932      2.573902989980     -0.252884916254
