30
0063
 C        -0.807817770814      2.229195536511      0.903528490834
 C        -0.044614500734      1.002829476174      0.488122859025
 C        -0.707634787691     -0.086332633769     -0.117712772449
 N        -2.101749052171     -0.049568215512     -0.367722012625
 C        -2.672880422671      0.395273454489     -1.640293231389
 N        -2.931787162488     -0.001379391385      0.754976424597
 O        -2.405533802267     -0.250801602148      1.835612613045
 O        -4.105433963805      0.268789778321      0.543138312178
 C         0.006401241385     -1.228535512416     -0.486104201083
 N        -0.731322526127     -2.390867156823     -1.021979100657
 O        -0.699081948087     -3.403762476999     -0.340058577650
 O        -1.320246017587     -2.229660793820     -2.081914702068
 C         1.377320693499     -1.324266390130     -0.275431716244
 N         2.101651585114     -2.556093443317     -0.647749055701
 O         2.888114592753     -2.995672976860      0.177336570738
 O         1.838435119137     -3.022707421229     -1.747876880412
 C         2.045745232319     -0.256550348291      0.304536344320
 N         3.512455776578     -0.312733012145      0.500489059809
 O         3.907700917119     -0.126148708060      1.640759295163
 O         4.178799214313     -0.532328415241     -0.498761162650
 C         1.332581606238      0.875182486843      0.690515485994
 N         2.080486242744      2.013471312605      1.265361632811
 O         3.017501280067      2.438097145849      0.600425713182
 O         1.682011235890      2.448572985359      2.336812543154
 H        -1.085448320329      2.147562733571      1.959216269426
 H        -1.722241663795      2.331743004237      0.317378045036
 H        -0.214980302559      3.137350214086      0.784341018429
 H        -1.907093592887      0.251288729759     -2.400174455172
 H        -2.972383696010      1.447399772514     -1.592682464869
 H        -3.539055207136     -0.219448132171     -1.884390344772
