30
0064
 C        -2.107550344566     -2.305771866026      0.879260720086
 C        -1.333634223523     -1.095332150012      0.426472397924
 C         0.055748209581     -1.111371768227      0.280695820445
 N         0.805269965321     -2.338618337853      0.618106719453
 O         0.716420837625     -3.278897551990     -0.158732282347
 O         1.447429367230     -2.303587239688      1.661165097073
 C         0.818695416700     -0.025099604870     -0.149604788322
 N         2.222708419536     -0.180137927579     -0.246245598831
 C         3.139997734731      0.432517446674      0.711785351660
 N         2.697688438929     -0.409418341441     -1.553587029483
 O         3.897768376371     -0.279834504625     -1.717983224661
 O         1.855800726431     -0.757933690576     -2.370097210168
 C         0.150242156683      1.174792565028     -0.415767688978
 N         0.921640967152      2.380928373419     -0.765918501741
 O         0.613652160114      3.408065349065     -0.173681743692
 O         1.822794243822      2.249665163398     -1.583668499772
 C        -1.230916149014      1.249085511068     -0.276501331057
 N        -1.945694552707      2.512441845587     -0.574674182016
 O        -1.770435963062      2.979535924848     -1.688343939599
 O        -2.643735776528      2.956889401798      0.324431241841
 C        -1.947045412044      0.131689708910      0.138575062246
 N        -3.418581087063      0.231672435253      0.234514372179
 O        -4.003683292266      0.628236548432     -0.764640757460
 O        -3.923151453555     -0.114849668067      1.294444517608
 H        -1.545071254223     -3.218505205720      0.686133005175
 H        -2.323115798430     -2.233700283879      1.949987783680
 H        -3.065645841365     -2.377975581067      0.360704004891
 H         2.658852327695      0.379348501989      1.689397252235
 H         3.374790291065      1.469089251632      0.449651305027
 H         4.058661509358     -0.152824305483      0.734122126604
