22
0069
 N        -2.576003880809      0.656642821226     -0.349992171761
 C        -1.318561378390      0.226172067983     -0.255553346537
 C        -0.869149440483     -0.991467865522     -0.868636722319
 N        -1.764032379552     -1.843912697844     -1.653454213246
 O        -2.939181119853     -1.482092484282     -1.817980264455
 O        -1.304858142137     -2.880207145896     -2.117572140564
 C         0.427267230465     -1.446440363838     -0.725982201645
 C         1.356540487767     -0.732377023487      0.014278476401
 N         2.678312142271     -1.337124954529      0.208678764025
 O         3.353399076998     -0.928720152503      1.148024093066
 O         2.998570070235     -2.228972588625     -0.572574915184
 C         0.996300302647      0.491606278885      0.581105545579
 N         2.010132018401      1.280301318611      1.332170892067
 O         1.869041949777      1.306664313563      2.542695433203
 O         2.873625426113      1.809402244036      0.656701464504
 C        -0.302256519059      0.972999914870      0.440907764837
 N        -0.620989578881      2.302043599700      0.969194368678
 O        -1.787742298097      2.525232965618      1.318117465764
 O         0.282643424160      3.123267501745      1.029129226301
 H        -3.224889151046      0.098136007325     -0.892318275252
 H        -2.856604214532      1.461299235283      0.196328110283
 H         0.718635974006     -2.382452992319     -1.183467353744
