18
0071
 C         0.073106332035     -1.064293756465      0.234142691794
 C        -1.163844594991     -0.498906050896     -0.034158596784
 C        -1.276117391679      0.894263879178     -0.342650864123
 C        -0.114346230456      1.664463511095     -0.366194859604
 C         1.138169334709      1.113691906907     -0.099118118117
 C         1.217510488592     -0.282471498659      0.206049834480
 N         2.480364895580     -0.920123648642      0.492768064554
 O         2.501879649535     -2.116538763491      0.748695443697
 O         3.513179827352     -0.211597792492      0.466795482080
 O         2.197424285850      1.914112418862     -0.141373741548
 O        -2.431515118899      1.493400924574     -0.608299938932
 N        -2.323964280468     -1.356776210393      0.008147972938
 O        -2.181855978065     -2.542230989555      0.276240332515
 O        -3.440703041414     -0.843617412299     -0.234653362517
 H         0.145520963482     -2.118425208795      0.466053947609
 H        -0.186846779174      2.719858542909     -0.598384869503
 H         2.988574838680      1.355947029364      0.071849269912
 H        -3.136637203010      0.799243119791     -0.546008683189
