48
0093
 O         7.877263772270      0.277174032383     -1.033708399484
 N         7.333315278633     -0.029943449575      0.021629326569
 O         7.901184887547     -0.300114014832      1.074498283880
 C         5.856764472718     -0.079938275563      0.024642501012
 C         5.197558672334     -0.411983628241      1.197814563331
 C         3.808960684957     -0.469074911524      1.174666484560
 N         3.157503862724     -0.828195232003      2.454288515498
 O         2.118218991000     -1.476937732963      2.400772320896
 O         3.726932485567     -0.464938734171      3.477550669604
 C         3.047199441456     -0.196164390079      0.025639179182
 C         1.554750173825     -0.149337935876      0.043806311451
 C         0.787347644327     -1.295123714652     -0.156832522436
 C        -0.593597905610     -1.210432114631     -0.147397466695
 N        -1.323926873239     -2.475096277995     -0.343028104966
 O        -0.668280433712     -3.470985260626     -0.625155890388
 O        -2.548061600871     -2.459523492199     -0.208847912092
 C        -1.284777539533     -0.000034512556      0.050001053730
 C        -2.783757252479      0.076478839941      0.049336086351
 C        -3.535963952872      0.002139261422      1.235997201027
 N        -2.877925822556     -0.171653367105      2.544825179467
 O        -3.564835796601      0.000085192457      3.544817106908
 O        -1.687506086807     -0.482973383191      2.553931823623
 C        -4.920399758630      0.083314364128      1.256321556470
 C        -5.590186910117      0.228192263804      0.052356299882
 N        -7.061280505332      0.306743984841      0.053678739769
 O        -7.614712879457      0.444408846834     -1.033124771766
 O        -7.624104076975      0.228726589130      1.141619417300
 C        -4.910884883675      0.301571396101     -1.152632521228
 C        -3.525469403177      0.233087509353     -1.135952039515
 N        -2.855819660132      0.337532160809     -2.447093797739
 O        -1.632284204793      0.466310541115     -2.460821779378
 O        -3.566317102955      0.294314599545     -3.444346571625
 C        -0.476871113547      1.126310384643      0.247763236993
 N        -1.066118918097      2.459646521322      0.448470140295
 O        -2.284822743156      2.579259002382      0.317924165387
 O        -0.304279698746      3.378286329846      0.731445744100
 C         0.914962969718      1.063804607101      0.250663183645
 C         3.783337057528      0.154417863551     -1.119216099537
 N         3.099524131103      0.472028235980     -2.394589638586
 O         3.656343944344      1.285981711911     -3.123543167517
 O         2.049909463478     -0.112648793267     -2.637528445001
 C         5.171024229057      0.223029684630     -1.141386905545
 H         5.746629634181     -0.612145667113      2.108241404365
 H         1.247308838890     -2.259969049957     -0.317197407102
 H        -5.458955458678      0.032064026969      2.192477104434
 H        -5.442564276613      0.412116142125     -2.087551304359
 H         1.468707761689      1.979797411014      0.411958490769
 H         5.698956461015      0.510092434781     -2.040981345540
