68
0094
 O        -0.890576339186     -5.381951318746     -1.657037515038
 N        -0.668387510433     -4.860670404881     -0.569993869566
 O        -0.942215168371     -5.301147738084      0.533753742743
 C        -0.003671808752     -3.537946033388     -0.604443533811
 C        -0.674943767250     -2.426805989381     -0.091525854432
 C        -2.077020019613     -2.519350797524      0.380161611272
 C        -3.061608835105     -3.051104488803     -0.466691946179
 C        -4.389384803930     -3.086948189854     -0.051788205392
 C        -4.742580559454     -2.606576142890      1.210366169469
 C        -3.763355577693     -2.091534388865      2.061975792978
 C        -2.434219907821     -2.043239857502      1.650694710456
 C         0.003290789326     -1.189048141859     -0.120069801133
 C        -0.756728379877      0.071859341397      0.200221722203
 C        -0.459219267751      0.899073677015      1.298170865530
 N         0.478878571916      0.424525115142      2.335613478954
 O         0.521418741776     -0.785429043730      2.539136739308
 O         1.154518920082      1.271730629696      2.903343455080
 C        -1.018509721008      2.168954922332      1.442391709100
 N        -0.609901361007      3.072393400589      2.552710262531
 O        -1.051127513910      2.805921239096      3.653711835510
 O         0.123098211892      3.987817019950      2.217834206061
 C        -1.948000414811      2.624748974522      0.516951303000
 N        -2.506326457809      3.993453239468      0.627046558348
 O        -2.786985453882      4.369764519326      1.755844763639
 O        -2.630500057119      4.609312400247     -0.418391306877
 C        -2.341109184157      1.792840873668     -0.521004994682
 N        -3.384294938286      2.256471859947     -1.474139683647
 O        -3.041316933491      2.366634929495     -2.636245483605
 O        -4.477125926369      2.473448797417     -0.976912694167
 C        -1.749011551056      0.543692860807     -0.676707644749
 N        -2.226812620659     -0.300582630145     -1.798152092201
 O        -3.439966105937     -0.370940134282     -1.924391075663
 O        -1.383560599168     -0.871528481262     -2.474807219899
 C         1.331414232552     -1.104197714517     -0.584205528152
 C         2.050385981678      0.207017056933     -0.462389586783
 C         1.631431933458      1.292606596340     -1.250139123390
 N         0.875022186751      1.021222476311     -2.495904759860
 O        -0.031290477361      1.797230361003     -2.782497781916
 O         1.235990036622      0.054125294570     -3.144823481123
 C         1.955933071386      2.603268296658     -0.918809382996
 N         1.325099945067      3.748727099915     -1.628452355369
 O         0.251673911557      4.105361083504     -1.175414959909
 O         1.946412913207      4.209636807571     -2.569050342763
 C         2.874427830641      2.845837959373      0.099561501081
 N         3.352679972575      4.225828701829      0.354863783006
 O         4.556508851255      4.347780112151      0.524380331097
 O         2.506845225748      5.106004113126      0.348242405647
 C         3.386716976458      1.782073116004      0.830333440829
 N         4.370988766859      2.052385168070      1.912228706531
 O         5.471127464939      1.552740426729      1.754237425266
 O         3.972104429878      2.749026801664      2.827840093473
 C         2.944074906067      0.482843239829      0.584699619791
 N         3.399014567878     -0.597588289656      1.495437648624
 O         3.608180623891     -1.695867177296      0.995125504026
 O         3.523560996905     -0.305251191739      2.674066104624
 C         1.936986999072     -2.236303764042     -1.136565212214
 N         3.318357243888     -2.138921639809     -1.643105779951
 O         3.966684863157     -3.171569971633     -1.692515003792
 O         3.719307011058     -1.020297500758     -1.954565290278
 C         1.259597756767     -3.447073661853     -1.175449830544
 N         1.830416568492     -4.655228812855     -1.821229838092
 O         2.062736193478     -5.594466509590     -1.076687768419
 O         1.964543330886     -4.598018084908     -3.030728520274
 H        -2.793608981946     -3.400678739332     -1.458813558498
 H        -5.148042536263     -3.482251553178     -0.719251065697
 H        -5.779344846906     -2.635810781034      1.530880976797
 H        -4.032773516613     -1.734157011894      3.050984942052
 H        -1.666108884169     -1.673772326404      2.320590682037
