25
0104
 C        -2.680758699386     -0.834982778638     -0.328455727647
 C        -1.298482195980     -0.268062108320     -0.134516908994
 C        -0.152025601518     -1.069618394642     -0.008312088671
 N        -0.338432597133     -2.534461914110     -0.029048947605
 O         0.113212395608     -3.137132546714     -0.997215382543
 O        -0.925970234439     -3.043246000520      0.922411519305
 C         1.150295399320     -0.590671251688      0.127230799497
 C         2.292791102595     -1.558073622293      0.326627134461
 C         1.302213755441      0.816618533434      0.121399426485
 N         2.626229491222      1.413651467359      0.150153459117
 O         2.720263912975      2.627899933594      0.440477194009
 O         3.603665459165      0.732923780218     -0.126269274840
 C         0.181854690829      1.689078483716      0.049471524846
 O         0.248172895538      3.013965532192      0.061653702719
 C        -1.084020533789      1.102855430503     -0.099423884556
 N        -2.239685310162      2.011180726677     -0.205184187140
 O        -2.883167414475      1.966969994318     -1.250541111913
 O        -2.481439519315      2.719644311143      0.763135831038
 H        -2.732698691431     -1.879378201367     -0.027117869485
 H        -2.970588206691     -0.746001996366     -1.380369757543
 H        -3.414417158956     -0.274883107057      0.257234697914
 H         2.837381935825     -1.714363204782     -0.608480511332
 H         1.925029672834     -2.523150121316      0.675335960622
 H         3.008191960933     -1.174734975510      1.053849428651
 H         1.192283490992      3.253972030168      0.246054973605
