35
0108
 C        -3.750936571892      0.703754714189      0.963318896464
 C        -2.687386286122      0.226734487838      0.009644858554
 C        -2.946761330211     -0.332118636674     -1.254462221123
 N        -4.325889032947     -0.516680936184     -1.748565996968
 O        -5.221137964774     -0.640710495056     -0.916544107186
 O        -4.480323702584     -0.552302037834     -2.965865259160
 C        -1.940115176818     -0.740101843874     -2.118632904565
 C        -0.618753494096     -0.648760949223     -1.715630114071
 N         0.406357210976     -1.143568981952     -2.649642120722
 O         1.555078559220     -1.257289363231     -2.227996395679
 O         0.042904867361     -1.411972781571     -3.790046065775
 C        -0.269211811112     -0.141672565306     -0.458099947971
 C         1.130022076473      0.089011365434      0.012360883847
 C         1.679592995729      1.356930344031     -0.202243302701
 C         2.952735563517      1.676758384880      0.261828969169
 C         3.668065642457      0.713690166920      0.962899926792
 N         5.016461869240      1.041328789236      1.461299356782
 O         5.443719544679      2.168263354425      1.222908960877
 O         5.617376825848      0.166771244794      2.078183639347
 C         3.150884450576     -0.549174025194      1.218192441533
 C         1.883262345199     -0.843064969148      0.740497355742
 N         1.350708363477     -2.186662965103      1.015057201720
 O         2.012731381789     -2.922754804761      1.736615257108
 O         0.274441074090     -2.487485532375      0.498860350951
 C        -1.326957412731      0.307706928486      0.337537698656
 N        -0.947681998686      0.897773058973      1.640303538319
 O        -1.069287734719      2.113182330631      1.756898588312
 O        -0.520152811500      0.127934675251      2.491998640877
 H        -3.330734838346      1.354853283659      1.728191160536
 H        -4.232853318294     -0.153631981913      1.442241619229
 H        -4.535886040245      1.246889360787      0.434973555649
 H        -2.184370445008     -1.132271531228     -3.096093504148
 H         1.099394968725      2.099520579280     -0.738816896380
 H         3.389344028755      2.652925475707      0.093781658606
 H         3.715258201975     -1.283804143893      1.775444277380
