51
0115
 C         1.329257595303      1.351043572593     -3.390713925129
 C         1.202648759047     -0.027657790982     -3.397923256743
 C         1.340320974446     -0.770425665145     -2.234636690680
 C         1.591466886185     -0.109684965057     -1.045143052879
 C         1.661954173761      1.301662086835     -0.953072620902
 C         1.565188735661      1.997922657823     -2.184586131251
 N         1.659846950371      3.463935678542     -2.250420656406
 O         2.226317087759      4.048467455279     -1.321704157754
 O         1.192656990804      4.015601822844     -3.237929649774
 N         1.775037246731      1.980020380757      0.247982394343
 C         1.090454495645      1.672081724703      1.390840539987
 C         1.290037370959      2.361012039129      2.620074372940
 C         0.548803482351      1.965317788219      3.722221941584
 C        -0.370180119322      0.933085349993      3.618799165638
 C        -0.538464298027      0.304649522608      2.353009700765
 N         0.193690620535      0.693625564722      1.313702714870
 N        -1.422427190971     -0.717288574377      2.143590018844
 C        -1.666665027012     -1.318527340403      0.921153596913
 C        -1.788374843366     -0.595454803250     -0.290332576041
 C        -1.894434820571     -1.213899308973     -1.523550053224
 C        -1.936206714136     -2.599271788817     -1.577323603812
 C        -1.891892019301     -3.365881213974     -0.425262225011
 C        -1.769013745178     -2.727832781276      0.802196704620
 N        -1.699925861093     -3.607456501850      1.978622453084
 O        -1.406218592434     -4.780378688833      1.789504509954
 O        -1.966900945042     -3.119470859761      3.081198739469
 N        -2.043847238893     -3.257541553213     -2.887482418772
 O        -2.108451675587     -4.482836871367     -2.895120936915
 O        -2.059630965544     -2.528964000099     -3.876130864128
 N        -1.894303478615      0.872431069738     -0.315822596906
 O        -1.400381516736      1.447640747294     -1.284585767514
 O        -2.502158326919      1.416668271872      0.597327626160
 N        -1.110637647497      0.554532351413      4.809719732212
 O        -0.972720987780      1.243412495838      5.814450497899
 O        -1.835843230513     -0.448442306587      4.745995481567
 N         2.230451144854      3.455626809769      2.785337707858
 O         2.796889085709      3.890039881683      1.772235841161
 O         2.407430102862      3.894416922937      3.916356037993
 N         1.863807830960     -0.981633719390      0.109021289339
 O         1.235603225084     -2.037721607266      0.167025786149
 O         2.723545273716     -0.623856790905      0.904239607499
 N         0.930816796288     -0.728311188809     -4.661495125157
 O         0.844839374222     -0.042264618772     -5.675166023604
 O         0.809129346127     -1.949182186462     -4.605225211994
 H         1.223488072199      1.924027162742     -4.301992287618
 H         1.273470404408     -1.849448377240     -2.257062713330
 H         2.247978663921      2.885265176492      0.237775373566
 H         0.688715315124      2.466355083205      4.671160656568
 H        -1.773497905435     -1.186102070383      2.980375057438
 H        -1.964083050087     -0.623690945834     -2.426913300036
 H        -1.927685804975     -4.445815098001     -0.474121702841
