32
0127
 C        -4.432580906674     -0.520236859445      0.507734402840
 N        -2.974768565804     -0.641857012661      0.570789451481
 N        -2.444829831092     -1.610030472473      1.310024015602
 C        -1.126225143763     -1.472218145739      1.179701993909
 N        -0.228133732807     -2.369895945311      1.871045845744
 O         0.973603440069     -2.093499909665      1.782106582003
 O        -0.706797496160     -3.314013385807      2.480117998014
 C        -0.762615585118     -0.406407253077      0.338688298553
 C         0.585837442524      0.053933445815     -0.054788491652
 C         1.420253191847      0.757960281115      0.829397862125
 N         0.970243475208      1.091040499686      2.197069395030
 O         1.843020856692      1.277581156352      3.035632289272
 O        -0.239020193998      1.181492431450      2.396120711513
 C         2.700257517463      1.174136628069      0.491994020056
 C         3.157459358774      0.911515924618     -0.789788306841
 N         4.508107193224      1.361950472419     -1.175941965023
 O         5.153126630593      1.977614127414     -0.333180577258
 O         4.884630284817      1.087499335548     -2.310998847015
 C         2.380636043278      0.238599960948     -1.719014294161
 C         1.119150937719     -0.191830880063     -1.330944166168
 N         0.344466487040     -0.927599759955     -2.352254765921
 O         0.640663815217     -0.722268585108     -3.523210850945
 O        -0.525733494128     -1.703891200839     -1.965003717576
 C        -1.997431201561      0.104074672178     -0.035824049700
 N        -2.261650120907      1.212942764579     -0.900487642796
 O        -3.429420592919      1.579856193660     -1.031039623335
 O        -1.284180323677      1.720110746562     -1.453251677108
 H        -4.766698083969     -0.595556268222     -0.527257081637
 H        -4.823476649711     -1.342807016133      1.104253852969
 H        -4.743190644326      0.441544460167      0.916295866971
 H         3.320774089863      1.689731842534      1.212084857168
 H         2.744321802285      0.050527751385     -2.719871386115
