21
0133
 O        -2.603416354565      1.965956154126      0.836458366858
 N        -1.752822036574      1.299733477469      1.391347388355
 O        -1.282014781890      1.447428229345      2.511075869550
 C        -1.168955509338      0.106507847959      0.643347704107
 C         0.359772118943      0.079935510861      0.726335296366
 N         0.901261368611     -0.873540183492     -0.218356677607
 C         1.858680769811     -0.486345909856     -1.135011698741
 N         2.958663216578     -1.152236917542     -1.430275318544
 N         3.563371963846     -0.436257592100     -2.424374146352
 N         2.894680555623      0.622418499579     -2.724800215896
 N         1.797040055928      0.615794250914     -1.913102139376
 N        -1.815560895210     -1.131992478308      1.274479626576
 O        -1.094710639797     -2.111714847071      1.386348414584
 O        -2.982281391277     -1.020016021867      1.598020947697
 N        -1.612753538400      0.185098667681     -0.813856112263
 O        -1.093522429283      1.101686568992     -1.439548281116
 O        -2.406247142639     -0.636608586838     -1.218049902293
 H         0.717406447703      1.086815428815      0.501592897066
 H         0.629581620974     -0.147296771704      1.760277318641
 H         1.090833977203     -1.789396654956      0.169336263753
 H         1.041192623753      1.274131327993     -2.048345601364
