49
0138
 O        -3.238468233092      0.997289355855     -2.059018607603
 N        -3.262611965528     -0.211600980129     -1.920403799112
 O        -2.436602307099     -1.027256141206     -2.298606000354
 C        -4.457933857664     -0.734188665817     -1.126325297050
 C        -4.493361723908     -0.047146660667      0.241904339731
 N        -3.159152790958     -0.027068886723      0.792755818087
 C        -2.601890703901      1.185113180649      1.140769978022
 N        -3.221046931091      2.349792279735      1.178946366975
 N        -2.257074267995      3.263075104502      1.499225216452
 N        -1.111023585304      2.703238952367      1.657701121228
 N        -1.293316237722      1.364878433204      1.422483488583
 C        -0.173502702929      0.433810832878      1.398812954675
 C        -0.000028672614     -0.251677208000      0.037668423680
 C         0.173153112162      0.712319331607     -1.142765682455
 N         1.292671691999      1.626776648759     -0.964254342491
 N         1.109933089703      2.984250868923     -0.903902889185
 N         2.255836725696      3.496832314065     -0.627991012823
 N         3.220136122718      2.536170801582     -0.513260699366
 C         2.601339449345      1.390677630608     -0.728272071663
 N         3.159029873281      0.132080216640     -0.651204855541
 C         4.493337507967     -0.006451547429     -0.117932955443
 C         4.458349078944     -0.973583877959      1.068982778748
 N         5.731269719003     -0.917168746018      1.899672277288
 O         6.751768878206     -0.942021439026      1.225589916280
 O         5.624738673728     -0.867951797310      3.108910026052
 N         4.303094668656     -2.435710170555      0.633667576766
 O         4.719693410662     -3.279601510021      1.402190012246
 O         3.757074474270     -2.613371650062     -0.446996002313
 N         3.263042774604     -0.635773020605      1.957563618224
 O         2.437285301267     -1.514212979600      2.150153983099
 O         3.238640669954      0.514364606163      2.354803769190
 N        -5.730760935200     -0.499495604474     -1.925313209788
 O        -6.751341095018     -0.670066831683     -1.272822636601
 O        -5.624084183706     -0.189444501406     -3.095149133667
 N        -4.302302080291     -2.255856148043     -1.018047164160
 O        -3.756362842902     -2.663251390762     -0.001428011447
 O        -4.718557424988     -2.913339030993     -1.951204022927
 H        -5.219362148709     -0.568847146161      0.868857523693
 H        -4.830869418344      0.981573937011      0.101515017251
 H        -2.875677404689     -0.851462782150      1.303827126610
 H         0.702750655592      1.027264920531      1.665500090979
 H        -0.302518509617     -0.320207034141      2.182408830581
 H         0.862695371562     -0.918354669247      0.120710247816
 H        -0.862515810485     -0.884869507622     -0.187779735462
 H         0.302370195155      0.145894931434     -2.071030364922
 H        -0.703306533968      1.349150536748     -1.274657754791
 H         2.875605847499     -0.562179959474     -1.328589192743
 H         5.219367471393     -0.379727719542     -0.843098071893
 H         4.830587604356      0.967532723563      0.241933011544
