20
0150
 N         4.157370407896     -0.940737281984     -0.039959624045
 C         2.851741782195     -0.684500069706      0.190507063038
 N         2.203725695441      0.438365918570     -0.006671303493
 C         0.929470272506      0.069342250273      0.341039396090
 C        -0.205741146335      0.982628556373      0.290481613205
 C        -1.535949908572      0.820601716961     -0.185771586221
 C        -2.122674222863     -0.316055025421     -0.874133589116
 N        -1.501364886587     -1.303085400797     -1.494573386446
 N        -2.481070009371     -2.082567822160     -2.025656769313
 N        -3.657983671271     -1.610328421668     -1.755352357058
 N        -3.453275287965     -0.494226676283     -1.029105479147
 N        -2.260360853000      1.897612782442      0.019268032073
 O        -1.468876325859      2.811896552667      0.629777412025
 N        -0.125860203334      2.216873867945      0.800601238667
 O         0.731532701932      2.881754245100      1.334670899750
 N         0.765999444744     -1.169020028230      0.744095455357
 O         2.077701035315     -1.693490650576      0.633443908765
 H         4.564306232433     -1.759437115882      0.388408452926
 H         4.756570380330     -0.137489584758     -0.162693443201
 H        -4.225561437636      0.071662187134     -0.702075933856
