13
0155
 O         2.840474129779      0.156713015728     -0.940768044540
 N         2.479576290925     -0.456060938022      0.066202437460
 O         3.183523521794     -1.087360646361      0.836167863497
 C         1.037993453900     -0.392931116642      0.330102902428
 N         0.511558128991     -0.981485940071      1.341981633372
 N        -0.898497124499     -0.721365298566      1.303171694338
 C        -1.125859427731      0.006246948716      0.270546364773
 N        -2.478982584731      0.458672058689     -0.070273930895
 O        -3.401644499458      0.127443216255      0.654922045484
 O        -2.543564341013      1.149935742823     -1.088956066422
 C         0.078515504626      0.345534129880     -0.536752379772
 H         0.038205487064     -0.026671958798     -1.566895205197
 H         0.278701460353      1.421330786370     -0.599549314527
