50
0167
 O        -2.229155089053     -0.332592739439     -3.599957036944
 C        -3.069725688118     -0.060150601246     -2.787541651738
 N        -4.358707758377      0.410027884451     -2.994401432293
 N        -4.820515785365      0.902254395906     -4.241398369866
 O        -5.800102499206      1.625694921268     -4.135964902886
 O        -4.243463420599      0.543233672117     -5.243390942217
 O        -2.925619526514     -0.197634453063     -1.430792327712
 C        -1.615483583274     -0.573973392086     -1.026226963929
 C        -1.701250807691     -1.132020110225      0.380187871081
 O        -2.002301503418     -0.006686917574      1.213899456726
 C        -2.488641587718     -0.278376954177      2.460795244918
 O        -2.649172861245     -1.378421698238      2.915088055255
 N        -2.741311705543      0.958018748246      3.035870270715
 N        -3.094519596579      1.165900268976      4.388262124930
 O        -3.386538210506      0.197321327356      5.055223011275
 O        -3.072228465087      2.343841538156      4.712174072082
 C        -0.347435753837     -1.728139162595      0.807451088478
 N        -0.306979288421     -3.208069201001      0.506108912369
 O         0.315040201903     -3.915615020856      1.280509552928
 O        -0.867155616012     -3.571301339662     -0.528577981010
 C         0.862294760338     -1.089597212832      0.099599969631
 O         1.953728263660     -1.229572138896      1.012975942278
 C         3.198427933902     -1.358006156945      0.464257735430
 O         3.437877336235     -1.439551914943     -0.711421806392
 N         4.094520284694     -1.381397892025      1.523175789723
 N         5.468332302672     -1.035501058486      1.382502905366
 O         5.932555735568     -0.986805839845      0.263877828790
 O         6.021255979742     -0.845083029758      2.451502589063
 C         0.609988646434      0.400580043110     -0.205018361502
 O         1.722532420999      0.947477697965     -0.927604876427
 C         2.744759400310      1.455711250295     -0.175902053840
 O         2.738915213924      1.582855975192      1.019392813831
 N         3.755846678498      1.792408636930     -1.067613363900
 N         5.118761792258      1.924342730207     -0.675005384906
 O         5.363117204609      2.047821247093      0.505718626003
 O         5.887339902205      1.916692884380     -1.620547088527
 C        -0.607077725252      0.605034702844     -1.106439766954
 N        -1.288056623642      1.941230092192     -0.792065002599
 O        -1.059753097240      2.501931510603      0.272908695280
 O        -2.028867116663      2.365443497274     -1.669751571096
 H        -4.860345248015      0.842362415942     -2.227581220252
 H        -1.247678375737     -1.360045785610     -1.689576451677
 H        -2.488948827852     -1.881699897843      0.458601792466
 H        -2.454574848963      1.813960151180      2.572546392302
 H        -0.225744292730     -1.646630832979      1.885590525788
 H         1.105462516125     -1.614141803348     -0.828849796448
 H         3.765202387695     -1.147508505951      2.452849606897
 H         0.485217583120      0.948492646852      0.729266122700
 H         3.699884332717      1.448595058384     -2.019756202669
 H        -0.299305974949      0.717090362707     -2.145252440519
