27
0171
 N        -6.033188645012      1.894695626015     -1.212505172376
 N        -5.353002978039      0.977709595251     -1.196957485261
 N        -4.728045920794     -0.087989963414     -1.261487762094
 C        -3.367656773732     -0.064504378713     -0.687435626238
 C        -3.425234819680     -0.306029520900      0.822664788529
 O        -2.087524209878     -0.438250325569      1.340292905425
 C        -1.420009329366      0.716478830470      1.548726876241
 O        -1.907496687128      1.819847524059      1.474374983354
 C         0.035527367093      0.429537421990      1.847236868268
 C         0.758256894541      0.079509488739      0.555698791055
 O         0.257945055029      0.060302343041     -0.545396879314
 O         2.053150233190     -0.201776199824      0.803243657046
 C         2.847866601042     -0.537261068213     -0.352496508467
 C         4.262343044592     -0.783838750356      0.159993209680
 N         5.143620266012     -1.220591297677     -0.939889441284
 N         5.598870956637     -0.312903858056     -1.647667779735
 N         6.093600784639      0.422970312060     -2.366399962005
 H        -2.813177761235     -0.871841932398     -1.168244557612
 H        -2.853342580317      0.878330806249     -0.898932197944
 H        -3.921248102442     -1.251560922232      1.045198947517
 H        -3.937840500834      0.513473221212      1.332357222265
 H         0.496828001243      1.314715500961      2.292364699030
 H         0.138206634910     -0.405377206904      2.547425719240
 H         2.813448659577      0.287792363422     -1.070769048806
 H         2.440929019648     -1.428836029040     -0.836756120258
 H         4.649526638400      0.114263017182      0.656613261488
 H         4.257548151903     -1.598764597356      0.886346612256
