31
0174
 N        -1.318486156169      0.550864533337     -2.659762645080
 N        -2.233795652633      0.080509364039     -2.165820267650
 N        -3.312945231210     -0.383173098526     -1.784993798626
 C        -3.326241122106     -1.063392152483     -0.476359245208
 C        -3.385446726652     -0.079745624396      0.685789976060
 O        -2.125303146259      0.626630428007      0.764480371735
 C        -1.209484594344      0.124445043041      1.606254632754
 O        -1.393685463259     -0.720135291293      2.445546942717
 C         0.171136912958      0.774414430919      1.315247702591
 N         0.103130271018      2.226770857796      1.333186378122
 N         0.113472847375      2.733891619068      2.467775193913
 N         0.121676489864      3.339145917314      3.430035712453
 N         1.183595234779      0.330755477270      2.288916932176
 N         1.377616694314     -0.897506199323      2.333525482560
 N         1.672042588377     -1.986487975623      2.459206164713
 C         0.586992912403      0.271136312746     -0.079093831914
 O         0.255518942739     -0.839487593624     -0.441312724504
 O         1.379235398027      1.115844139332     -0.726084613408
 C         2.039697944075      0.595146415656     -1.901896883690
 C         3.412166729610      0.061247781903     -1.499844776583
 N         3.347465747381     -0.978305017021     -0.454021638006
 N         2.917291484354     -2.080624325213     -0.823544079767
 N         2.541871957250     -3.136262141783     -1.028954934818
 H        -2.459891067227     -1.724861994450     -0.360671872234
 H        -4.232930182392     -1.673374614090     -0.472071892934
 H        -3.570435108997     -0.598229564249      1.628557620236
 H        -4.142275594345      0.686920023575      0.514956357616
 H         2.139691182588      1.443337739752     -2.581437076563
 H         1.410959571639     -0.170593274477     -2.358371596787
 H         4.005115882995      0.865956328192     -1.061665871211
 H         3.932241253850     -0.300537545396     -2.397471718661
