41
0176
 N        -4.062806381407     -3.977363659791      2.006928948679
 N        -4.265160122579     -2.964000353180      1.524983711484
 N        -4.575556451127     -1.945024676992      0.891610880328
 C        -4.081556458872     -0.675181537868      1.444947968672
 C        -2.712605993007     -0.303094836632      0.847035814575
 C        -2.272074482906      1.057099906732      1.376473827669
 O        -1.035071562351      1.494855041216      0.785134747528
 C        -1.091712066523      1.920617649710     -0.481326198329
 O        -2.082674187379      1.988320595051     -1.164085062170
 C         0.320365076883      2.288836175617     -1.002815359689
 N         0.130799936194      3.457173052599     -1.848417537744
 N         1.161787974079      3.886037258763     -2.402386410693
 N         1.999409339341      4.421350888359     -2.950065629171
 N         1.352787381887      2.473463313042      0.040264930377
 N         1.024366279365      3.172990372013      1.013996576992
 N         0.852785313395      3.789297718938      1.951687387448
 C         0.898520777685      1.081290040851     -1.788803623894
 O         1.648329542415      1.195793855460     -2.723526955174
 O         0.505094455520     -0.061800799219     -1.211809234718
 C         1.204730818314     -1.277233309230     -1.570658387691
 C         2.226200255451     -1.597892819078     -0.476020064379
 C         3.370290400913     -0.570259138292     -0.426565954905
 N         4.365982164799     -0.871537437108      0.617421744388
 N         4.985845570136     -1.931906032479      0.466870432162
 N         5.624084978042     -2.877921858853      0.443424740130
 N         1.546224342111     -1.793527877385      0.821523683719
 N         1.414475745270     -0.788784305895      1.533311808292
 N         1.244434435391      0.040826495280      2.294680276351
 N        -1.695317010164     -1.302026063971      1.239798892795
 N        -1.544155112707     -2.237923897011      0.447475709255
 N        -1.311405616765     -3.145433223077     -0.202554115324
 H        -4.013446783877     -0.712081293130      2.539224757253
 H        -4.815563505126      0.085040761353      1.164580547697
 H        -2.808132717975     -0.257035463375     -0.241923204422
 H        -3.046858921566      1.802426875937      1.179184758104
 H        -2.055414619506      1.005917490749      2.443939709962
 H         1.679686244738     -1.151481036781     -2.545618982732
 H         0.441770087788     -2.052981183380     -1.611749101808
 H         2.642115011922     -2.582645086167     -0.718881885385
 H         3.838299291732     -0.505525457229     -1.417111740486
 H         2.990926570465      0.421423854455     -0.173082405144
