17
0178
 O         1.473159729915      1.142453827137      1.214734160136
 C         1.298040153447      0.404111132501      0.285052309399
 N         0.054552354545     -0.033786430688     -0.175858771575
 C        -1.141093180071      0.259792363235      0.430984034754
 N        -1.314906175241      0.840808643157      1.597369749567
 O        -2.700197277552      0.884113209631      1.757556714975
 N        -3.366491889712      0.347435335217      0.720442608809
 C        -2.434833422077     -0.043069815691     -0.107045681020
 N        -2.741938761311     -0.682018428316     -1.365387626611
 O        -3.907924538803     -0.854871294480     -1.667631333574
 O        -1.755955009089     -1.008360858804     -2.046475021731
 N         2.304363783991     -0.177488927206     -0.534460919361
 N         3.675335678762      0.113583519064     -0.316210418057
 O         3.960719173445      1.237519357241      0.033236412615
 O         4.422189242157     -0.823488268084     -0.568782863767
 H        -0.045814418683     -0.450228385333     -1.097659261400
 H         2.220694556275     -1.156404978579     -0.791164093159
