19
0179
 N         3.310898939867      0.699012074637      1.301832359245
 C         2.057829624124      0.657637772719      0.741669286318
 O         1.154482945340      1.415466496021      1.071527798497
 N         1.926387996399     -0.308850993327     -0.250565906520
 C         0.816735531810     -0.468180217783     -1.075943821088
 N         0.983950674237     -0.967814995386     -2.270952546616
 O        -0.269525026450     -1.126947226552     -2.796780060574
 N        -1.235710403374     -0.688256530389     -1.912138139582
 C        -0.598436378818     -0.287321076718     -0.834428359289
 N        -1.192830973623      0.176354852437      0.306592742905
 C        -2.563310595379      0.234215426535      0.637886993906
 N        -3.416063944037     -0.387989617124     -0.224802399273
 O        -2.902212480272      0.782436595458      1.674006306883
 H         3.893664423617     -0.126957192561      1.303408272269
 H         3.371109658316      1.275808902849      2.129716608415
 H         2.773565752829     -0.694036324738     -0.651413604641
 H        -0.587492764232      0.717443805892      0.921485586253
 H        -4.396524471098     -0.251689691757     -0.031509198278
 H        -3.126518509258     -0.650232060211     -1.158891918832
