43
0181
 O        -1.093499188789      5.683365053718     -0.648416592846
 N        -0.627654749948      4.645227434557     -0.257541040733
 O         0.536451280816      4.339304223838     -0.071769883912
 O        -1.621892726521      3.669975832915      0.017928271721
 C        -1.092878077473      2.401469596999      0.459012910536
 C        -0.597179416849      1.554958472955     -0.722461465659
 N         0.174430939276      0.400100417146     -0.268604715161
 C         1.610828815130      0.492629252876     -0.503955550380
 C         2.309384307629      1.218816447811      0.652312021934
 O         3.745901302350      1.214887127980      0.490348671619
 N         4.363901101141     -0.005234868649      0.854380766880
 O         3.651581798975     -0.909869271043      1.255317151057
 O         5.558588556375      0.017026633961      0.711089134591
 C        -0.432512835075     -0.929482535365     -0.207882993192
 C        -1.851683704279     -0.787441599410      0.382889306099
 O        -2.416168075206     -2.110775456290      0.391289656575
 N        -3.761576663465     -2.148848687729      0.871256353033
 O        -4.253660994746     -1.094589430052      1.209840003350
 O        -4.216453553621     -3.262022208421      0.867607229756
 C         0.373828740913     -1.866595693690      0.723549990702
 O         0.549733245510     -1.154595988906      1.956374435425
 N         1.362039577000     -1.851986116783      2.902818239387
 O         1.696725983169     -2.979174269768      2.619201875395
 O         1.592840020461     -1.184178440984      3.877398308708
 C        -0.472090898994     -1.649815878022     -1.577312922263
 O        -1.379891603743     -0.898167742129     -2.398906177664
 N        -1.510889639568     -1.409154079957     -3.727631147139
 O        -2.278620817002     -0.762667709253     -4.391197108516
 O        -0.855697490803     -2.388992757948     -4.006443602925
 H        -0.299272996930      2.558768184950      1.190420826217
 H        -1.952050428124      1.951288216809      0.960937154333
 H         0.055014902942      2.181149030104     -1.337724885831
 H        -1.435358722873      1.269055385006     -1.362102082770
 H         1.822275624739      1.017757983232     -1.444822364434
 H         2.046648252869     -0.501327812261     -0.601149304544
 H         2.074733482889      2.285442624003      0.652657952621
 H         2.034472955197      0.778082994097      1.609940802409
 H        -2.482169894892     -0.139191011985     -0.222999544150
 H        -1.789230622458     -0.399868313852      1.401318381546
 H        -0.186195948847     -2.787129033249      0.897247644609
 H         1.349590252376     -2.127606233176      0.311145532435
 H         0.522852745963     -1.651194473131     -2.030430917417
 H        -0.825194835508     -2.679595300907     -1.484830321400
