33
0183
 O        -4.057366944407      1.447679775739     -0.824713656367
 C        -3.020299371420      0.833156463204     -0.820625316879
 O        -2.907747599640     -0.478261478406     -1.114063113005
 C        -1.689661190764      1.457962458986     -0.413435581990
 N        -0.504159290569      0.713212164869     -0.808715770722
 N        -0.183150318311      0.876096037072     -2.153912530855
 O        -1.062381676917      1.404498805619     -2.831582368140
 O         0.907045124008      0.504624383701     -2.565673699827
 C         0.342176468520      0.014780124196      0.186363711440
 C         1.036324930241      1.044637791543      1.098674525102
 O         1.812607236596      1.873722713460      0.224018393128
 N         2.497120620913      2.929755734014      0.906923862752
 O         2.333936475704      3.000914025129      2.106382313317
 O         3.149149078955      3.609451321788      0.161606325809
 C         1.423020255205     -0.908670740726     -0.406583614552
 O         0.734099971624     -1.871831234573     -1.214359780110
 N         1.575332465018     -2.537454523234     -2.159053759735
 O         0.954233808867     -3.281046977037     -2.871391705457
 O         2.759635623888     -2.292874074462     -2.113717192196
 C        -0.621640982416     -0.864492686734      1.028495767741
 O         0.194158445570     -1.471645405141      2.044746587930
 N        -0.532432768757     -2.378218162990      2.885777632912
 O         0.171095635858     -2.894144708736      3.711954944140
 O        -1.716837016506     -2.497049288944      2.664787953942
 H        -3.799764286073     -0.787711968216     -1.361565997657
 H        -1.664646011918      2.463056472389     -0.836277366626
 H        -1.688434506651      1.567034493086      0.672974045430
 H         0.302531766856      1.650568422513      1.637643100910
 H         1.675367813479      0.547926763787      1.831781637486
 H         1.915495583315     -1.418106157588      0.425523812935
 H         2.151793180069     -0.359583556245     -0.989254329611
 H        -1.407261144366     -0.280826556330      1.509640351523
 H        -1.079241375973     -1.617360431733      0.387630817232
