34
0195
 O         0.905368086118      1.084816679476     -1.212520496023
 C         1.514919568158      0.175380562855     -0.718303587567
 O         0.909288075992     -0.931835601464     -0.136337169256
 O        -0.512205883986     -0.834858432526     -0.247802807465
 C        -1.023976358632     -0.023888338321      0.745659564111
 O        -0.368214165635      0.512998889409      1.595684973834
 C        -2.505036368151      0.067370921900      0.597463759694
 C        -3.191369244159      0.790876143352      1.578073471650
 C        -4.571408973400      0.909453797589      1.477992795834
 N        -5.300449382807      1.670691553153      2.512442422463
 O        -4.636174908329      2.160500818623      3.420827022526
 O        -6.518684028167      1.758173457648      2.389753178096
 C        -5.295723324572      0.338124050695      0.438298393534
 C        -4.581095842915     -0.371375004681     -0.518758078765
 N        -5.319443279700     -0.990307941697     -1.637766086128
 O        -6.536964753629     -0.837582702746     -1.659829936142
 O        -4.662579640664     -1.614856402412     -2.466150647651
 C        -3.199624620680     -0.520537773988     -0.464742328350
 C         2.993414869160      0.042624356142     -0.629308911478
 C         3.751719741274      1.064831720061     -1.216243373444
 C         5.139425459937      1.014065164535     -1.173126360351
 C         5.744130332733     -0.067091548574     -0.536838460456
 N         7.217910724375     -0.127627399464     -0.487564188610
 O         7.726640614467     -1.091901231879      0.079674829936
 O         7.840086819205      0.790037834565     -1.017533363930
 C         5.012853163097     -1.093006169788      0.055569451401
 C         3.624227183313     -1.035667416598      0.007655814880
 H        -2.654754747397      1.251011572362      2.398019939552
 H        -6.370286006838      0.442548097412      0.376402223658
 H        -2.692622330682     -1.078957847237     -1.239934983640
 H         3.238600486193      1.888628423357     -1.698858992859
 H         5.753746421792      1.786786859562     -1.616891587368
 H         5.532656104840     -1.909533343959      0.539707314710
 H         3.035726209691     -1.821293747362      0.465386203604
