27
0202
 O         0.143126812113      2.119472883678      0.830231255223
 C         1.275856946472      1.812136654647      1.127845996703
 O         2.306939146766      2.605596537021      0.780482565518
 C         1.621387566035      0.558798001810      1.917006833123
 C         0.381757933795     -0.298101244999      2.171013767556
 N        -0.117662534601     -0.970439112156      0.972528730441
 C        -1.266901886978     -0.547257356544      0.217050414417
 C        -1.050912537834     -0.113613990219     -1.248639923625
 N        -1.206160828311     -1.276209411871     -2.248353293840
 O        -0.352950581207     -1.404511646631     -3.100665517935
 O        -2.231332049307     -1.918061147543     -2.096644590585
 N        -2.175272921330      0.873957881143     -1.670536075246
 O        -2.681534132887      1.540300732902     -0.784996296364
 O        -2.431614353943      0.898361332488     -2.859238255653
 N         0.268179300178      0.582247848818     -1.539623754053
 O         1.264789807654     -0.035117519224     -1.188899085667
 O         0.224385125042      1.668017758145     -2.082786363113
 N         0.491274320614     -2.146869209619      0.605509646901
 O         0.019102407730     -2.721952763615     -0.373987493152
 O         1.452424832280     -2.513524893246      1.276805103932
 H         3.152072299821      2.200663339652      1.039009928581
 H         2.056129522627      0.859359674950      2.879940622912
 H         2.381105759537     -0.029390719215      1.391841795705
 H         0.604209690887     -1.066071105850      2.912290044947
 H        -0.431899109572      0.326526095872      2.541056041576
 H        -1.669290304820      0.328095168020      0.721154090292
 H        -2.027510230759     -1.332413788414      0.171703811407
