30
0206
 O         3.930166698829      0.096367655741      0.716168282834
 C         3.063300128762     -0.446982449195      1.351736102273
 O         3.366732688520     -1.201175798933      2.432710199082
 C         1.573833799531     -0.321164271060      1.041009981864
 C         1.365824625718      0.306189746365     -0.347639726788
 C         1.487441874682     -0.669503770191     -1.513913388979
 O         1.006297899224     -0.501827805451     -2.611672822065
 O         2.249798541294     -1.723280710630     -1.183298865880
 N         0.141330512648      1.093735619818     -0.465081374669
 C        -1.126451259724      0.648421745781     -0.973073459602
 C        -2.046946214881     -0.024343611358      0.058676753555
 N        -3.395528629136     -0.374548393027     -0.594316010959
 O        -3.944746141336     -1.382484818720     -0.186616183653
 O        -3.784454094802      0.400965615920     -1.448718226016
 N        -1.485215630049     -1.354929157287      0.568608318910
 O        -1.664172610617     -1.644143411772      1.734213458794
 O        -0.907171653881     -2.020661041476     -0.282148407742
 N        -2.338188770720      0.856653399339      1.268947557583
 O        -3.474694589540      1.271393531962      1.390910464819
 O        -1.375775071817      1.072272427446      1.987541345213
 N         0.206170211830      2.414995476163     -0.011829488803
 O         1.283858317047      2.791089786410      0.429132543192
 O        -0.825853708241      3.075363641321     -0.087872619557
 H         2.559798903815     -1.570199400404      2.829375327050
 H         1.124156326864      0.336739528463      1.792158805226
 H         1.092096122447     -1.299628075862      1.120727920713
 H         2.198414550789      1.005855638128     -0.484566593195
 H         2.344960531493     -2.270727529380     -1.985818962097
 H        -0.953677312207     -0.065803126571     -1.777491291031
 H        -1.671306046543      1.501459558461     -1.371659640071
