42
0207
 O         1.208502618102      0.269216403033     -1.373520718308
 C         1.614905394071      1.011356761153     -0.506779834540
 C         0.880348479432      2.200022765149      0.042249180525
 C        -0.536634176528      1.821342353064      0.521754242878
 C        -1.243744908739      3.067677284938      1.105275578979
 O        -0.604095998301      3.960013923103      1.599764563402
 O        -2.581572483288      3.044965622148      1.123970505141
 N        -1.370168992986      1.107482508141     -0.447801226456
 C        -1.531771522110     -0.328379249339     -0.437279491351
 C        -2.880763368808     -0.776194450901      0.137052402279
 N        -3.011632637867     -2.305067035590      0.007090618501
 O        -2.568953824119     -2.774304513909     -1.026091110553
 O        -3.538800799679     -2.889139476932      0.935443978398
 N        -4.072206069999     -0.141105920321     -0.571997484865
 O        -4.774076415310     -0.861404102100     -1.248238503283
 O        -4.194512530503      1.065745714869     -0.394242232375
 N        -3.033904793906     -0.457921959881      1.632632753191
 O        -4.160874592777     -0.274237600945      2.044596125800
 O        -1.991024115512     -0.460922940789      2.272917000198
 N        -1.616817597435      1.739105775367     -1.674853562534
 O        -1.312770276278      2.924116331818     -1.737014951444
 O        -2.151472035395      1.067768945413     -2.547151817717
 O         2.828237477704      0.837724426877      0.102842484860
 C         3.567068530384     -0.303433611323     -0.312728383242
 C         3.325261699309     -1.457962765531      0.659502888448
 N         4.111326469887     -2.711505367188      0.237458094754
 O         4.636280614149     -2.666319460962     -0.862128978089
 O         4.131963090487     -3.617955609722      1.047650193317
 N         3.819623154357     -1.141224409121      2.083092266201
 O         4.855201151846     -0.493547520455      2.113393293253
 O         3.193410391676     -1.603357840741      3.013202800989
 N         1.851645639863     -1.831659580565      0.692483017122
 O         1.131965199622     -1.089123012656      1.346869436458
 O         1.510359980387     -2.773581001883      0.002837750691
 H         0.805055923588      2.953070798500     -0.746094885757
 H         1.414263538707      2.640713937222      0.882802228495
 H        -0.450219621370      1.122126887295      1.358389038835
 H        -2.947580322996      2.304060611746      0.603275295289
 H        -0.758070933926     -0.785953393213      0.179073239154
 H        -1.454975321745     -0.720665752651     -1.449058825134
 H         3.277037374024     -0.623142138023     -1.313242121111
 H         4.624286611985     -0.048202335096     -0.272494850399
