22
0215
 N        -4.124269774686     -0.860136912362      0.449448265591
 C        -2.845417154790     -1.319464506296      0.342177992964
 O        -2.477900645137     -2.460682400464      0.526580576468
 O        -2.006411924906     -0.286275231545      0.024413877104
 C        -0.626861737892     -0.663329845518     -0.066802699936
 C         0.088121478783      0.638939832456     -0.433029684506
 C         1.595464048178      0.630860118958     -0.304363887163
 N         2.172978589950      2.038619878091     -0.557068728468
 O         1.651116269272      2.656129954515     -1.469394893184
 O         3.093290426170      2.390842221390      0.157196897761
 N         2.071711312010      0.232731732708      1.100322431433
 O         1.420789385085      0.718508951087      2.011550625769
 O         3.044933607545     -0.492404951645      1.175926869579
 N         2.296259270232     -0.304496022844     -1.291528215852
 O         1.876879035679     -1.450845370662     -1.293176017130
 O         3.190374690174      0.164779732839     -1.971452639689
 H        -4.852000093159     -1.555477682906      0.507323327295
 H        -4.359841047155      0.053433967581      0.092512173396
 H        -0.288976859633     -1.063087202149      0.892893132317
 H        -0.498240563664     -1.437887589513     -0.821620684838
 H        -0.153318619891      0.943838450956     -1.454059915587
 H        -0.268679692164      1.425502875322      0.237551196678
