23
0232
 C        -2.446395266068      0.771212640815     -0.435199770193
 N        -1.939472198513     -0.466119937719      0.157441043955
 C        -0.938114501170     -0.462267303541      1.188593813711
 N         0.416308275142     -0.110266809908      0.695151508598
 C         1.266327827659     -1.016402336869      0.120698192072
 C         2.374159619945     -0.282592083920     -0.254530175386
 N         3.550994461141     -0.824466409930     -0.903558447549
 O         4.456648754289     -0.055324834847     -1.191410361704
 O         3.527377687071     -2.040683580806     -1.109794286238
 N         2.250989443898      1.026613191824      0.055702454831
 C         1.070911937160      1.110445212397      0.619075772829
 N         0.546555265438      2.359352048207      1.131825835119
 O         1.226221253715      3.357812128167      0.974565051837
 O        -0.557732944346      2.322032159802      1.697876436605
 N        -1.983469827074     -1.593631885889     -0.662282307258
 O        -2.668076649134     -1.503602735636     -1.671448293704
 O        -1.360697135618     -2.589943767882     -0.287581494229
 H        -3.491665583672      0.640640720795     -0.713288636175
 H        -1.874282461514      1.053728398750     -1.326060004466
 H        -2.353740656326      1.549694458670      0.321016483233
 H        -0.872898377529     -1.457199236854      1.619105800458
 H        -1.215128618025      0.270090007599      1.937629063332
 H         1.015279693531     -2.059020043223      0.013672320323
