20
0237
 O        -3.569929762940     -0.079996420339     -1.131848048834
 C        -2.870130589476      0.103278799583     -0.150673537731
 O        -3.404687392013      0.380996348014      1.062728129894
 O        -4.841595267172      0.419661515182      0.998727166331
 C        -1.389293413763      0.056667653674     -0.116257279959
 C        -0.727144101365     -0.222930832486     -1.318772802591
 C         0.660300022095     -0.280216456769     -1.350588241465
 C         1.389298694106     -0.056807274825     -0.174095195175
 C         2.870135545612     -0.103426997115     -0.139677117608
 O         3.569913095945      0.079254356804      0.841623586858
 O         3.404724769589     -0.380254873691     -1.353267748704
 O         4.841628091153     -0.419045174681     -1.289240234504
 C         0.727148502120      0.222766977013      1.028425475483
 C        -0.660295640811      0.280052122738      1.060241014673
 H        -4.976181222932      0.220043008560      0.036817087394
 H        -1.314461272141     -0.391788972416     -2.214180960917
 H         1.177523690021     -0.496097302309     -2.277986331448
 H         4.976202631522     -0.219739355011     -0.327263679592
 H         1.314464392796      0.391590082718      1.923841079206
 H        -1.177520772347      0.495892795357      1.987647638688
