18
0238
 O         2.791974210835     -1.503082279970      0.182781234687
 C         2.248474741830     -0.544726582163     -0.337704609691
 O         2.939768547889      0.351908897225     -1.079992731395
 O         4.334311805530      0.004868993840     -1.146413607113
 C         0.806060186545     -0.210928712288     -0.252316843758
 C        -0.008686687424     -1.073057751697      0.493380724892
 C        -1.369025062197     -0.815015724913      0.611591314629
 C        -1.888799793732      0.309626170009     -0.024358578422
 N        -3.332176623395      0.589414733221      0.097086791630
 O        -4.007424462859     -0.194175711744      0.760966139378
 O        -3.766212957168      1.587914040480     -0.473379827030
 C        -1.099072475351      1.180786554900     -0.770728853981
 C         0.260986918962      0.915849306222     -0.884302209139
 H         4.333684412824     -0.821052387048     -0.598038692000
 H         0.438565181146     -1.936873995312      0.971621535033
 H        -2.026090550478     -1.460514322440      1.179927462373
 H        -1.553500287277      2.040945416886     -1.245016836211
 H         0.897062894320      1.578113354791     -1.459302413885
