47
0243
 O        -3.627929539031      0.546029918094     -1.358262284614
 C        -3.447142727904      0.008172467064     -0.297256831498
 O        -2.354366895077      0.094128257285      0.480193510960
 C        -1.256666483901      0.808516513355     -0.075265609570
 C         0.002903468409     -0.054161787229     -0.011571984252
 C         1.158694971736      0.662176787512     -0.708717908030
 O         2.354457122896     -0.092092357839     -0.550644794188
 C         3.406344541503      0.580510907047     -0.053518115703
 O         3.471172711631      1.759468756981      0.177984400421
 O         4.383499782517     -0.332627366125      0.140786343965
 C         5.638991276381      0.188607938044      0.546024390637
 C         6.642022198672      0.058392014318     -0.600258768908
 N         8.061569347195      0.304532707932     -0.089791870462
 O         8.145256712759      1.137277556038      0.800161655063
 O         8.956113334819     -0.324986042931     -0.619618937891
 N         6.391823652246      1.053202541963     -1.732434823227
 O         5.254675343826      1.057290573616     -2.172859853781
 O         7.333287744472      1.740890181857     -2.083128920978
 N         6.629822579067     -1.355936917071     -1.191416291873
 O         6.678493229608     -2.238206704303     -0.350998140918
 O         6.603603892141     -1.460737734982     -2.401167978473
 N         0.322562505601     -0.321798410264      1.461427916548
 O        -0.270268925551     -1.231959931939      2.006428744355
 O         1.097684424253      0.474585211679      1.981566579127
 N        -0.210423167446     -1.401895005931     -0.705511046818
 O         0.508253149130     -2.323102397143     -0.371059851854
 O        -1.043524639646     -1.401086297283     -1.606348267853
 O        -4.308714255446     -0.809195632659      0.347761524975
 C        -5.592301153654     -0.936855172658     -0.242396556873
 C        -6.629569972442     -0.229354303909      0.629637024117
 N        -8.040980706808     -0.626698504828      0.198147871037
 O        -8.885684118701     -0.697855448919      1.069121553022
 O        -8.172136881034     -0.815071573654     -1.001790745719
 N        -6.490757871065     -0.638571319000      2.100415420114
 O        -6.402850514872     -1.843360032351      2.267121144527
 O        -6.510042534095      0.243715579787      2.934922058398
 N        -6.545493286239      1.293839570591      0.546235799227
 O        -5.437737795374      1.760788605823      0.751022078915
 O        -7.573525087918      1.891406507540      0.284892563686
 H        -1.469044868037      1.084706545447     -1.108652557644
 H        -1.088384085038      1.706235615543      0.526426261099
 H         1.284518250702      1.662149152615     -0.292176294644
 H         0.928811074088      0.726323576952     -1.776112605637
 H         5.559748219957      1.232749019164      0.848337694071
 H         5.998938229659     -0.422194023680      1.373904889564
 H        -5.612717576390     -0.520216988685     -1.249324725951
 H        -5.842884677601     -1.997432552867     -0.263033656470
