38
0250
 N        -3.996182396852      0.805510320910      1.236234057968
 C        -2.827017141042      0.241646142200      0.912819551116
 C        -1.509362890722      0.772026905727      1.044227613962
 N        -1.171322155533      2.065391431614      1.545830637794
 O        -2.125116020058      2.772326509147      1.906910762990
 O         0.009388780784      2.399570325955      1.593854921005
 N        -0.566877712482     -0.078222464790      0.634353592100
 N        -1.202928885894     -1.168413721782      0.241290306477
 C        -0.429087548663     -2.237722462973     -0.414377147340
 N         0.215184471572     -1.802030063319     -1.630869003628
 C         1.617884429861     -1.457222191831     -1.711125905598
 N         1.963254417497     -0.237880434465     -0.983398472101
 N         1.669658670831      0.929924414053     -1.533807673787
 C         2.041835498947      1.856490709625     -0.657510053756
 N         1.834111851402      3.249771725252     -0.921899425730
 O         1.291614834934      3.579919433621     -1.967486292864
 O         2.233965848309      4.027388858130     -0.040348623907
 C         2.605010666731      1.303872875799      0.530586420103
 N         3.096274656313      1.936688570383      1.600096467887
 C         2.527170655467     -0.077336389256      0.279018422123
 N         2.793895200394     -1.097644831883      1.194067253744
 O         2.519711998656     -2.278048406773      0.898730214162
 O         3.294738433714     -0.760277259648      2.279947602303
 N        -0.622507138520     -1.433140264007     -2.694517103267
 O        -1.821682711339     -1.602884851901     -2.501217236474
 O        -0.095211736029     -1.008999136129     -3.710747254325
 C        -2.577221033633     -1.036040628895      0.382750594139
 N        -3.542368518719     -2.029746202800      0.122092590174
 O        -4.727758411923     -1.677474286400      0.247483723509
 O        -3.184674597062     -3.171879423540     -0.181656214829
 H        -4.846383553625      0.308932341458      1.009613030866
 H        -3.988592621684      1.752206967720      1.588223745658
 H        -1.122727769770     -3.051139643909     -0.601025844542
 H         0.366009537313     -2.540971635468      0.267087407024
 H         2.209043440842     -2.265545973639     -1.292689517714
 H         1.851147818958     -1.292911917120     -2.759305629586
 H         3.315894961295      1.377120120481      2.413270615645
 H         2.901126669731      2.926944538458      1.673391868699
