30
0255
 C        -1.242811631909      2.460138762146     -0.302189922216
 N        -1.590369407445      1.041798524651     -0.108861496757
 C        -0.720874068123     -0.020245613315      0.035776136442
 C         0.720879965261      0.102568391361     -0.035791343638
 N         1.364132061396      1.245250708361     -0.253186846258
 C         2.671412731117      0.928576867426     -0.267279601508
 N         3.686972602434      1.956831574883     -0.407500213427
 O         4.796042961294      1.694430577623      0.052346668533
 O         3.348854451953      2.998210594757     -0.956386354179
 C         2.847732840539     -0.425550080168     -0.042417906858
 N         4.054311545468     -1.221098471220      0.000550755665
 O         4.896252691309     -0.986407800847     -0.854492800722
 O         4.131065282828     -2.069907361849      0.891431798666
 N         1.590375581469     -0.959470366751      0.108890142074
 C         1.242818340768     -2.377801557482      0.302284900598
 N        -1.364126262365     -1.162938482660      0.253118162442
 C        -2.671407066945     -0.846266845540      0.267217652351
 N        -3.686964070545     -1.874531840125      0.407389922372
 O        -3.348852200326     -2.915918474819      0.956265569320
 O        -4.796023358868     -1.612131237787     -0.052482974371
 C        -2.847727805659      0.507869635316      0.042412538749
 N        -4.054306057881      1.303417465797     -0.000535046858
 O        -4.896273216965      1.068663306571      0.854466141575
 O        -4.131034411839      2.152290621204     -0.891357419769
 H        -2.163340485885      3.033521691628     -0.355675274033
 H        -0.615114997912      2.791354438419      0.524294169942
 H        -0.682077142369      2.566929391391     -1.230193740158
 H         0.681970736232     -2.484526700642      1.230227148274
 H         0.615228047002     -2.709096032320     -0.524249453541
 H         2.163352345967     -2.951161686008      0.355928687290
