42
0258
 O         3.541939916593     -0.966246651033     -1.020092695567
 N         2.805027480601     -1.481620844707     -0.186168212880
 O         3.166654961074     -2.074425815841      0.826234978662
 C         1.322414339540     -1.382382611927     -0.425161457961
 C         0.735651754694     -0.026235458678      0.050452542872
 C         1.306534835091      1.121388883391     -0.811137075933
 O         0.854485025748      0.911589071536     -2.160860319470
 N         1.574050425925      1.681155563656     -3.143800581775
 O         2.410372027735      2.448751948541     -2.732511551960
 O         1.202905416573      1.436024547894     -4.260810289281
 C         1.180347220815      0.246286925593      1.515094216388
 O         2.557372496368      0.649134514606      1.480230529656
 N         3.312016717061      0.300179287300      2.661527641325
 O         4.460026756542      0.631464889567      2.565784445414
 O         2.712376778214     -0.242599851947      3.560294770865
 C        -0.866186448504     -0.098235322500     -0.022160711532
 C        -1.393567836860     -0.835815538666     -1.286620169986
 O        -1.158785645055     -2.243346570397     -1.152852875731
 N        -2.237314218415     -3.094793549048     -1.624164883301
 O        -2.006165616992     -4.249383800722     -1.397553619542
 O        -3.167234459431     -2.560722051045     -2.175335862482
 C        -1.503240955992      1.305149210581     -0.140655802317
 O        -1.109130696242      2.075421132010      1.003915242220
 N        -1.920292828624      3.249466889215      1.222132786540
 O        -2.766619190292      3.489086009908      0.394321954327
 O        -1.603472960164      3.829517211411      2.224599793091
 C        -1.395783307406     -0.821673049884      1.246344226416
 N        -2.896818434279     -0.954968481894      1.225528585092
 O        -3.542263310788      0.015932024473      1.614289490489
 O        -3.372385631079     -2.006121991437      0.810483748244
 H         0.886956881119     -2.220538129547      0.111449160788
 H         1.191062837122     -1.511730354265     -1.496760694387
 H         2.393322969868      1.098842601562     -0.787456285843
 H         0.967496487458      2.094181730619     -0.447650151230
 H         1.091890003669     -0.656754438406      2.119565146339
 H         0.598532746295      1.049871966603      1.965958769553
 H        -0.901746501985     -0.472412567788     -2.188841013447
 H        -2.467508649654     -0.670841531814     -1.387143846098
 H        -2.589082826906      1.223421069836     -0.154170660526
 H        -1.181635622221      1.802149580113     -1.058665048114
 H        -1.009105750577     -1.835846217975      1.315755927866
 H        -1.182697186638     -0.252220228895      2.147109853217
