14
0269
 O         2.807254197488     -0.149279449956     -0.990871838918
 N         2.808797590050      0.182074026529      0.193505269574
 O         3.757241643454      0.549303434054      0.865695692023
 N         1.601182499457      0.087798870532      0.868936965235
 C         0.376187523047     -0.024504872229      0.230537269744
 N        -0.763571909036      0.234906954595      0.842506045347
 C        -1.658450458579     -0.065003092996     -0.129998883053
 N        -3.098698528217      0.068458205972      0.076843515209
 O        -3.820925392293     -0.223444093310     -0.869492315425
 O        -3.457636804502      0.461257852069      1.180579997523
 N        -1.173027609483     -0.480692280358     -1.284795127101
 N         0.156034661334     -0.461032866423     -1.032948508414
 H         1.623906175837      0.514200327544      1.788682362475
 H         0.841706411442     -0.694143016022     -1.738880444219
