17
0270
 C        -0.597464827979      2.014164733194     -0.110832775310
 N         0.172823273443      0.779813022845     -0.130633058372
 N         1.289092732938      0.666765966858     -0.873854433046
 C         1.653793840248     -0.582909388138     -0.625371364125
 N         2.867061762196     -1.141310508636     -1.215244831575
 O         3.488731070418     -0.418132681589     -1.986365862867
 O         3.159572234296     -2.285055159469     -0.886660409432
 N         0.853194656882     -1.296498211865      0.192473648620
 C        -0.080718413742     -0.406400491158      0.481981668871
 N        -1.139609765321     -0.601671240565      1.370887784239
 N        -2.447325353381     -0.749835336366      0.807882320066
 O        -3.241218143251     -1.348000490167      1.509080763074
 O        -2.638351987877     -0.213796035050     -0.271448088509
 H        -1.316956695131      2.019892990183     -0.931660765744
 H        -1.127879954760      2.074174932454      0.840617832573
 H         0.102316290259      2.843510249975     -0.209436688800
 H        -0.996960719237     -1.354812352503      2.038584260336
