18
0273
 O        -1.981328244414      1.771495619665     -0.407296678618
 N        -2.226848890642      0.539801898123      0.114499251900
 N        -3.030231738062      0.320538329475      1.164186649484
 N        -2.956801560260     -0.961494914726      1.387252125894
 N        -2.127196579260     -1.582069615064      0.499682795111
 C        -1.684413506702     -0.628564146183     -0.294526898461
 N        -0.785949788296     -0.747537716174     -1.362649416234
 N         0.575591203217     -0.867212739407     -1.001490341712
 C         1.121663222742      0.071550838323     -0.169541916654
 N         0.661814293254      1.278456110464      0.133248651642
 N         1.607502984255      1.862836426054      0.938229405350
 N         2.601350313337      1.078972309420      1.144738512733
 N         2.322078269492     -0.048817630562      0.431967528426
 O         3.074265346900     -1.187101168630      0.493752997300
 H        -1.019072397041      1.914558798069     -0.164507628441
 H        -0.887797659876      0.010005675447     -2.032368139082
 H         0.858364646906     -1.827524119352     -0.844944968718
 H         3.877010084450     -0.997993954943     -0.030031929919
