9
0287
 O        -2.152549110167     -1.224280773950     -0.340516559247
 N        -1.752550175409     -0.131670749300      0.044120252119
 O        -2.430857220001      0.811061634757      0.430063832361
 C        -0.308355304771      0.068976058968      0.041965907511
 N         0.282548080025      1.217162196183      0.437045222339
 N         1.565945692779      1.015661290704      0.293714635579
 N         1.679315005800     -0.231354366359     -0.174812065547
 N         0.538488764540     -0.872270284199     -0.352504289493
 H         2.578114267204     -0.653285006804     -0.379076935621
