12
0288
 C        -1.273987601553     -1.001108152074      0.191151832013
 N        -0.573318442746      0.280485732725      0.233314501470
 N        -1.256200553150      1.434221397268      0.124729440094
 N        -0.386631676014      2.404689400741      0.194500070655
 N         0.864949353466      1.923758322736      0.347586103907
 C         0.728470338507      0.616113184321      0.369087500085
 N         1.810745424028     -0.335937299828      0.516546014324
 O         2.939047856479      0.111462929602      0.629890834612
 O         1.486225163994     -1.527314083048      0.513883334139
 H        -1.103077526135     -1.545486142992      1.120024433685
 H        -2.330137633779     -0.765790052876      0.066705408324
 H        -0.906084703096     -1.595095236575     -0.645619473306
