19
0296
 N        -3.801458509917     -0.766559791543      0.232896415188
 C        -2.539491081153     -0.294728064932     -0.046967428007
 N        -1.402020401699     -0.771841836329      0.426138526337
 C        -0.461784243269      0.097273099476     -0.090553702497
 C         0.934137991929     -0.133284407890      0.243674976090
 N         1.211192470069     -1.173087608132      1.068514824184
 N         2.522200912949     -1.342759909142      1.348220772502
 C         3.128314753647     -0.372179420857      0.677276501087
 C         2.192882855149      0.415985096699     -0.031581498865
 N         2.537946495055      1.535240445254     -0.851179536489
 O         1.635974954279      2.141549558910     -1.428294685456
 O         3.740195637815      1.816170270147     -0.922180065649
 N        -0.946844410673      1.064266079947     -0.852268060685
 N        -2.286476461616      0.798044810994     -0.813250781517
 H        -4.467158435305     -0.729539968483     -0.529540381930
 H        -3.779041712336     -1.675532129295      0.678933961352
 H         0.508934104768     -1.788601862745      1.457523204924
 H         4.200089722758     -0.248389227175      0.705204211803
 H        -2.927694642449      1.427974865097     -1.272567252375
