23
0302
 N        -3.627951909858      1.650901457312      0.886600686779
 C        -2.560181689643      0.882928041172      0.592845548580
 N        -2.844170819733     -0.393761388733      0.197860812508
 C        -1.814678545872     -1.166259135115     -0.071131024925
 N        -1.943518621918     -2.444653394678     -0.454777200206
 N        -0.542951836310     -0.677518721672      0.044265069179
 N         0.603096599331     -1.382493733248     -0.231770720981
 C         1.567096313122     -0.504574048040      0.020280758246
 N         2.893351147004     -0.927241172923     -0.079067662161
 N         3.715497069651     -0.352328783960     -1.080911705447
 O         4.742297530600     -0.976877042154     -1.305604274496
 O         3.341167842719      0.688692217637     -1.587244032356
 C         1.072219202156      0.760768736347      0.438060547520
 N         1.823931433128      1.888141211282      0.873331923562
 O         3.045474869595      1.747018159695      0.989123661098
 O         1.202156536768      2.922525958936      1.125667122251
 C        -0.330505961047      0.642567342956      0.437160476090
 N        -1.351517565083      1.446340959637      0.722817717483
 H        -3.479889460464      2.619805562387      1.123331620042
 H        -4.557921671593      1.293285987614      0.739133684490
 H        -2.868925471263     -2.815094522792     -0.604066098148
 H        -1.121226082672     -2.970255546055     -0.714242715999
 H         3.037151091383     -1.931718145604     -0.084164193109
