16
0305
 N        -2.586801309622      1.116562146139     -0.136391862669
 C        -1.476805595321      0.365130114932     -0.041949524305
 N        -0.276852104917      0.821001339654     -0.227757953039
 N         0.683907295356     -0.127178675879     -0.031378718945
 C         2.035578844030     -0.023023251803     -0.107875358429
 N         2.683494737955      1.113227866076     -0.520215674455
 N         2.581301998165     -1.197164127449      0.199719528315
 N         1.579435574912     -2.094103537869      0.479941934455
 C         0.438520534554     -1.444304023068      0.345346970236
 N        -0.824730102020     -1.897178059629      0.518560401519
 N        -1.766562398813     -1.027004091028      0.325146213772
 O        -2.983024526230     -1.327884438055      0.436888181740
 H        -2.519779841628      2.030873523707     -0.556572406860
 H        -3.463181816923      0.609898776520     -0.113849559679
 H         3.671633731351      1.100017522433     -0.298868001082
 H         2.223864979153      1.981128915318     -0.270744170575
