26
0308
 O        -5.084041694830      2.784501522310      0.380040470347
 N        -4.508602686924      1.841733737314     -0.139346837286
 O        -3.552021064454      1.882003864507     -0.908780261641
 C        -5.005592454542      0.503432858497      0.153713059165
 N        -6.256960453048      0.293464289721      0.449513020832
 O        -6.357742097857     -1.057726393723      0.571352808115
 N        -5.156558048724     -1.690757385074      0.359973939790
 C        -4.302006930939     -0.735074771060      0.088130921078
 C        -2.886476510400     -0.989758691786     -0.175245407432
 N        -2.479332664071     -1.981665538694     -0.936685523629
 O        -1.094134392909     -1.868008125951     -0.891591775243
 C        -0.823966109797     -0.811720342379     -0.101785970319
 C         0.565034244616     -0.458244791377      0.124021413783
 N         1.626526208128     -1.040842708550     -0.352523082044
 C         2.627069337322     -0.271555724164      0.191771464314
 C         4.046993460316     -0.536307106869     -0.022498034600
 N         4.492416455784     -1.746646432470     -0.262473370009
 O         5.853253883206     -1.624508815008     -0.370036373360
 N         6.271687656873     -0.341815407059     -0.183653883494
 C         5.178105339750      0.333426894593      0.027586828512
 N         5.221348610792      1.784292444090      0.184016172844
 O         6.175881550148      2.254277510832      0.783181790590
 O         4.287979888225      2.390998026065     -0.330460884573
 N         2.213545227302      0.714662425114      0.958782952441
 O         0.832236772394      0.598114575268      0.916424158783
 N        -1.884543526359     -0.225975914148      0.372672403038
