13
0314
 N        -0.237690100783      2.627676319669     -0.955813242792
 N        -0.142777397078      1.578681399992     -0.573290786153
 C        -0.030346586610      0.335528307071     -0.121660532876
 C        -1.053827607766     -0.591653543782      0.227072996312
 N        -2.478009897556     -0.329916580991      0.147083359580
 O        -2.769661714648      0.801959242332     -0.260649460653
 O        -3.253009483501     -1.209605292855      0.477294088106
 N        -0.531194378434     -1.727048886838      0.635156763755
 N         0.834148525147     -1.622765317365      0.582305410100
 C         1.145638548475     -0.423639360212      0.141996371367
 N         2.503252304962      0.050591722158     -0.045598411062
 O         3.425721607083     -0.700280694213      0.216614680605
 O         2.587656180710      1.210272685034     -0.470411236287
