12
0328
 N        -1.233868340170     -1.092780715696      0.209289055734
 C        -0.762493416312      0.215913618868      0.380984088835
 N        -1.390360157743      1.161475732362      1.028966721670
 O        -0.513662178640      2.231864671579      1.020200484948
 N         0.637365995349      1.943328873493      0.351517214737
 C         0.516666595173      0.700608856122     -0.043778047315
 C         1.603041335617     -0.044298377735     -0.756328562932
 O         2.526902158810      0.487882742241     -1.311308693992
 O         1.448530259402     -1.387517021572     -0.727213583150
 H        -1.457560400758     -1.298878252504     -0.763079466123
 H        -2.052876902193     -1.272544236060      0.785167959526
 H         0.678415051465     -1.644955891097     -0.174317171940
