24
0330
 N         4.251863606264      0.566790177772      0.430623748142
 C         2.905791994150      0.660536920959      0.312074053501
 N         2.289639151416      1.842578703048      0.221325955934
 N         0.982780985142      1.538796165104      0.063858786536
 C         0.684996093252      0.230905457186      0.048474918373
 C        -0.676435032848     -0.231128295477     -0.117803585187
 N        -0.970208982687     -1.539143367017     -0.165604361091
 N        -2.276367943590     -1.842952521451     -0.328716141226
 C        -2.895049276168     -0.660839383628     -0.399034783972
 N        -4.229456020444     -0.567450710206     -0.612092510796
 C        -1.945519582745      0.408473192083     -0.268701753153
 N        -2.303437898387      1.764632736284     -0.265554223038
 O        -1.435925558166      2.658058193188     -0.165567135180
 O        -3.509477649203      2.043397179287     -0.363285086550
 C         1.952132539572     -0.408649626091      0.215128319038
 N         2.297347799246     -1.764441597514      0.314793629755
 O         3.490682422073     -2.042846412675      0.515396126314
 O         1.430804637568     -2.657892068574      0.206922780775
 H         4.748439195105      1.408842277204      0.682981677258
 H         4.624216234563     -0.330858311344      0.703538092531
 H         0.270285190760      2.266248793968     -0.027123760195
 H        -0.257645879971     -2.266595330220     -0.075135742393
 H        -4.773217476384     -1.408135274916     -0.482095855175
 H        -4.656238548518      0.331773103031     -0.444303150203
