21
0335
 N        -2.968847062507      0.486863639271     -1.571276720428
 C        -1.865468754060      0.283074520646     -0.836786533333
 N        -0.640488175653      0.216795029549     -1.389117955460
 N         0.188743464587      0.021888942760     -0.320875672107
 C         1.533758961217     -0.099689404667     -0.442804950071
 N         2.055201207553     -0.023126706257     -1.663300558516
 C         2.168739038922     -0.296107699775      0.809828338854
 N         3.617145043219     -0.448990765824      0.882858633261
 O         4.140783606816     -0.616366762332      1.968584635976
 O         4.235082175879     -0.396472800040     -0.199546652620
 N         1.523343991502     -0.355020047719      1.976345101395
 N         0.222260303177     -0.232950322947      2.064236915120
 C        -0.453389358252     -0.042710839589      0.909253274869
 C        -1.807166924471      0.126950357087      0.586913597376
 N        -2.913811238445      0.130594150197      1.467337179197
 O        -4.041529887412      0.279486960066      0.950822673190
 O        -2.714711771858     -0.011208304001      2.669900360818
 H        -2.908784840470      0.504537795356     -2.577182286990
 H        -3.857768321680      0.460003475870     -1.089367002024
 H         3.059265318899     -0.112795068497     -1.752448582825
 H         1.427543223037      0.125343850846     -2.443373795681
