24
0336
 N         2.999101996948      0.249103237634     -1.121230735022
 C         2.995413969271     -1.022972572458     -0.597529761287
 N         4.051633492475     -1.773630972550     -0.331590660822
 N         3.560294716152     -2.891882403821      0.277571417774
 N         2.279591118603     -2.857148431912      0.385149524765
 N         1.882993498500     -1.667226033002     -0.175085119320
 C         0.509389031375     -1.220503843654     -0.141547407924
 C         0.308412718324     -0.162235634770      0.954875763575
 N        -1.007049717225      0.444303173028      0.835839343721
 C        -2.068815554587      0.353821709358      1.691218906825
 C        -3.103715560228      1.064820851713      1.119499770428
 C        -2.546811480951      1.534197299819     -0.085640355794
 N        -3.218480939684      2.343908522967     -1.080958062734
 O        -4.384021052021      2.653237388934     -0.824459826267
 O        -2.597140984804      2.658238416534     -2.090763019306
 N        -1.282401210261      1.162121094040     -0.263936384938
 H         2.239804974722      0.472817977953     -1.755023377008
 H         3.903983515273      0.501534259255     -1.501779013696
 H         0.231773210811     -0.793047587858     -1.109905066303
 H        -0.112934413007     -2.099494771939      0.035418615234
 H         0.393119050792     -0.611453797056      1.946447992456
 H         1.063629808170      0.622234509832      0.857496176495
 H        -1.997594676549     -0.192502409287      2.620412029799
 H        -4.100375512101      1.231860017239      1.493419249348
