28
0338
 N         3.304745205377     -0.435691171571     -1.400022132060
 C         2.323310507068     -1.203076186821     -0.805080756015
 N         1.704519650346     -2.249719277208     -1.319621984985
 N         0.744392800394     -2.593028607107     -0.413184634110
 N         0.766007331730     -1.824982570024      0.617608152559
 N         1.783779694932     -0.925636404052      0.405697022765
 C         1.868854316740      0.267189881653      1.216767286951
 C         1.112540761154      1.435534313686      0.552364862298
 N        -0.198992122156      1.031153600405      0.090661670755
 N        -0.330521248053      0.628232144639     -1.215262494302
 C        -1.559943977744      0.182856485416     -1.304769648875
 N        -1.992292597034     -0.396528045123     -2.573430235299
 O        -2.591753497262     -1.461475244439     -2.505441446616
 O        -1.691181466626      0.215528994003     -3.592497315674
 C        -2.255412917736      0.265608784086     -0.070458251004
 N        -3.604581704650     -0.020451141558      0.253211758096
 O        -3.915089616392      0.038095637454      1.461365874076
 O        -4.387799962554     -0.284384713934     -0.651879374732
 C        -1.320320146187      0.806153471880      0.826040519742
 N        -1.470987839616      1.148345971795      2.132006028356
 H         4.139370781728     -0.304972676376     -0.837029276251
 H         3.541454535846     -0.803679803311     -2.315829824587
 H         2.914490493899      0.547000488928      1.376842270041
 H         1.439634873820      0.004124398522      2.186371668790
 H         1.649264967662      1.773167855499     -0.335120800600
 H         1.014693565444      2.275437073663      1.248139530233
 H        -0.658227748284      1.113602148357      2.731192001230
 H        -2.329854641846      0.771794591535      2.525259529219
