24
0351
 O         2.533102087884      2.466032454802     -1.081782387827
 N         1.979460709872      1.538253062098     -0.521450546810
 O         1.147091160048      1.613642876631      0.387382504737
 C         2.322888065007      0.185547029391     -0.932074372165
 N         3.300160646297      0.002455965054     -1.770841524748
 O         3.424314722783     -1.324107408144     -1.940285722847
 N         2.398521857950     -2.009110030000     -1.096195380230
 O         2.350241917212     -3.210832990889     -1.122018702820
 C         1.726552496405     -1.022473056519     -0.478802637723
 C         0.624318933101     -1.349462437907      0.416060848706
 N         0.724868918763     -2.410475186037      1.185333502578
 O        -0.443952124022     -2.547427044248      1.856648842482
 N        -1.338661945553     -1.482616362593      1.447151820928
 O        -2.460673424520     -1.442353330035      1.904465334316
 C        -0.656806375082     -0.732737131735      0.568543347261
 C        -1.291541798439      0.399625100459     -0.048955169389
 C        -2.208462599749      1.374021755196      0.428357094661
 N        -2.628898725752      1.581154720075      1.811658060813
 O        -3.673134176369      2.183184342998      1.996147326160
 O        -1.852052703378      1.149559262075      2.658143681999
 N        -2.576330886661      2.220177615372     -0.490318520231
 O        -1.922439622758      1.870655830670     -1.621940387348
 N        -1.094824791854      0.698983174842     -1.337273459498
 O        -0.383742341186      0.248401788446     -2.217953553006
