20
0362
 N        -1.177873807398     -2.309864238707      0.255523493056
 N        -1.436549338222     -0.973456507587     -0.037315069732
 N        -2.692669914872     -0.493949433300     -0.217849141500
 C        -2.443326198858      0.778116518127     -0.464442930923
 N        -3.536048594106      1.717663664231     -0.729435374600
 O        -3.217936639342      2.877988196022     -0.948078991293
 O        -4.670656347847      1.252814893448     -0.706575391663
 N        -1.149373975993      1.166543005784     -0.460739861435
 C        -0.532007053119      0.037409218131     -0.187452741025
 N         0.850979711070     -0.114405471916     -0.066384015590
 C         1.620202928457     -1.225289988292      0.212891260200
 N         2.887651813108     -0.890902014872      0.226094637401
 C         2.841643403839      0.438099958518     -0.051312556844
 N         4.052218270005      1.257538491028     -0.141941755412
 O         5.114733634821      0.678160412502      0.046427880396
 O         3.894953352600      2.445102767503     -0.397681110704
 N         1.654022876944      0.971592950391     -0.238542394327
 H        -1.677473987758     -2.540712120726      1.114552009617
 H        -1.572971618614     -2.873686433791     -0.497352899434
 H         1.190381485286     -2.198763866493      0.386014953813
