23
0367
 O         3.613299827389      2.241516191987      0.946656451592
 N         3.720693964569      0.941984447194      0.509128660200
 N         2.591416793657      0.552939526103      0.159061478430
 C         2.566624720599     -0.763316913302     -0.295708232868
 N         3.501372144081     -1.698808788468     -0.378052935284
 N         2.876826288061     -2.788855572802     -0.880731134144
 N         1.614763606573     -2.554243404604     -1.103858540473
 N         1.395657415382     -1.274498510933     -0.745581212355
 C         0.078010638377     -0.659912801529     -0.812284324561
 C        -0.557201589594     -0.568272776326      0.582852607940
 N        -1.863366855254      0.045378808060      0.497801119165
 C        -2.237635031866      1.290772152022      0.902887627069
 C        -3.558373455706      1.446993970252      0.530839529048
 C        -3.891481314209      0.231166950605     -0.108185006064
 N        -2.863307381315     -0.616402519497     -0.132714442101
 H         4.531369648084      2.456181487103      1.190877336879
 H         0.179750169481      0.336850939864     -1.246986058781
 H        -0.535554400298     -1.280400235507     -1.465254378082
 H        -0.655398313423     -1.569253902530      1.012113123923
 H         0.065884848217      0.042563054371      1.240164388044
 H        -1.548864518856      1.944598945300      1.418510153004
 H        -4.188734435343      2.306915394211      0.702216009045
 H        -4.835752768605     -0.063796441576     -0.546352219626
