31
0372
 O         5.050011127188     -0.797944100663      0.827187041920
 N         4.906787446707     -1.542517138006     -0.127994102447
 O         5.761017758680     -2.220617720178     -0.678852219393
 C         3.505621659493     -1.673811986424     -0.730268401678
 C         2.453428949648     -1.065562974920      0.120846815227
 N         1.799097535233     -1.785510285404      1.076083082597
 C         1.001586360081     -0.887142135303      1.619025089480
 N         1.187859764410      0.318357160849      1.017727685908
 C         0.448748617515      1.552746447140      1.168396412561
 N        -0.717063431372      1.581444286431      0.310800845455
 C        -0.828505465090      1.944946841983     -0.994637675820
 N        -2.040605187829      1.667660507390     -1.434137498587
 C        -2.631357546694      1.101459045728     -0.343295376475
 C        -4.018216357658      0.577323659588     -0.389003836676
 N        -4.716606103136      0.811585645424      0.943404650728
 O        -5.165434280838      1.938146365259      1.090054501164
 O        -4.729985259179     -0.107147528645      1.744317591269
 N        -4.077850031130     -0.927394712136     -0.667645294376
 O        -5.192123554585     -1.346294671444     -0.943226134145
 O        -3.040234493278     -1.563982834926     -0.597365389789
 N        -1.872033161077      1.018293154149      0.737578742607
 N         2.115255306971      0.210923519473      0.036495279516
 N         3.537947774668     -0.996098961098     -2.092487529983
 O         2.694651596681     -1.396618749849     -2.880007863584
 O         4.353552514571     -0.105916654419     -2.261545889635
 H         3.339683629549     -2.735093074186     -0.896374835401
 H         0.287876590120     -1.047390328097      2.414877923161
 H         0.107849584866      1.648544429869      2.198670159511
 H         1.114141587383      2.374315092906      0.905444122757
 H        -0.020796064560      2.394809680069     -1.554790921151
 H        -4.614406867335      1.058588019439     -1.159576974722
