17
0381
 N        -1.773698084883      1.289146768223     -0.046791799813
 C        -0.819573115791      0.359102519245      0.072623446430
 C        -0.807033487716     -0.924781189911      0.652939605227
 N        -1.945044897961     -1.560650600140      1.220416876931
 O        -3.004593740901     -0.898102910062      1.182107665896
 O        -1.834444964061     -2.681474556046      1.698056902608
 N         0.417330210495     -1.498448954010      0.577483851827
 C         1.172737870019     -0.617960827977     -0.017393281937
 N         2.543585845247     -0.814823965420     -0.369744103360
 O         3.110785957557     -1.815088071686      0.044706422307
 O         3.059689817265      0.066672069407     -1.083998891484
 N         0.463992808109      0.545248786138     -0.359318294881
 N         0.842696592537      1.744485856369     -0.986366181087
 H        -1.598574079756      2.079185163415     -0.653142870794
 H        -2.711450349891      0.997976389403      0.197044800413
 H         1.422838388462      1.483957557513     -1.782272377472
 H         1.460655231270      2.245355965537     -0.346351770810
