14
0382
 N        -2.192604322461     -0.507693191511      0.902154975733
 C        -0.925596356546     -0.722249804157      0.487859452092
 N        -0.307943088641     -1.931469530110      0.556070729656
 N         0.922540495870     -1.812746705715      0.082708971787
 N         1.124778265239     -0.558335091891     -0.273967457570
 N         2.366368430452     -0.166839415908     -0.782912050936
 C        -0.010236036788      0.196300228499     -0.037830194939
 N        -0.198008399079      1.535299495476     -0.380245992338
 O         0.722930106131      2.153876028515     -0.945374475144
 O        -1.299403766089      2.034608031151     -0.093839378243
 H        -2.783736100269     -1.315604406544      1.034072357818
 H        -2.612265725055      0.379397763980      0.660625482108
 H         2.201677256971      0.740538707791     -1.220519411002
 H         2.991699240265     -0.025082109576      0.011296990975
