14
0384
 N        -0.135737471975      1.628321866419     -0.261116086957
 C        -0.018836250931      0.310612908539     -0.032888829310
 C         1.047921848422     -0.490945214826      0.387335914590
 N         2.370497951413     -0.040395007723      0.616923020805
 O         3.226580129136     -0.834987596470      0.986452108041
 O         2.566628092083      1.177778255568      0.413920728062
 N         0.637861549784     -1.784235548546      0.513916796617
 N        -0.609852771887     -1.868975975859      0.209252844317
 N        -1.029791494442     -0.584190886191     -0.130790216923
 N        -2.316003625736     -0.268908622073     -0.547928772925
 H         0.732741463616      2.146211977639     -0.294769955769
 H        -0.960418494969      1.961296289353     -0.740403395944
 H        -2.961176465131     -0.477183533233      0.213549448785
 H        -2.550414459383     -0.874598912598     -1.333453603388
