36
0387
 C        -0.190681927742     -2.251655075458     -0.977689200500
 C         0.021846833505     -0.768106389089     -0.668847081526
 C         1.168794575006     -0.156174126787     -1.488929865926
 C         1.672888396087      1.048817863736     -0.666810180860
 O         3.059626094047      1.024844154253     -0.395994159760
 O         3.770171321434      0.917423398204     -1.668186556925
 O         1.312718333789      2.189507068413     -1.423956391696
 O         1.627056949356      3.373904918254     -0.626488253038
 C         0.997790124934      0.971079264717      0.717710869487
 C         0.387963941019     -0.449548633521      0.821443835799
 C         1.395452247017     -1.410982881263      1.455327653868
 C        -0.959959593136     -0.446110824070      1.562143730629
 C        -2.008274196817     -0.023727892056      0.511246783355
 O        -3.077240768279     -0.936682338413      0.367103159642
 O        -3.694847201019     -1.130992047765      1.666101760534
 O        -2.497584918399      1.239132020020      0.956061320767
 O        -3.409421180567      1.758225858647     -0.063745036052
 C        -1.305145625449      0.009490549800     -0.855694964107
 H         0.716231280059     -2.836579141750     -0.794457402231
 H        -0.463493239393     -2.381407304808     -2.031416181766
 H        -1.003174090621     -2.672041882444     -0.375643614504
 H         0.867676804447      0.143608881016     -2.496439587093
 H         1.992413302625     -0.866651338586     -1.597847796021
 H         4.336516804771      0.153616734902     -1.458502553267
 H         0.767396030071      3.826783368846     -0.683855549856
 H         1.711458365287      1.183797291228      1.517567523376
 H         0.223011741773      1.739686953108      0.766657884281
 H         2.344529228351     -1.410909937493      0.908017979310
 H         1.013235526861     -2.435917798807      1.486605231760
 H         1.613008947255     -1.104195130937      2.484890547438
 H        -1.224308821697     -1.445621322958      1.915305436123
 H        -0.967405023231      0.218665558149      2.430787411802
 H        -4.192167007411     -0.294211741175      1.747404844787
 H        -2.951294086207      2.589863317791     -0.278603963266
 H        -1.940789079707     -0.417988868651     -1.635094559027
 H        -1.114000088019      1.050957474946     -1.126173075534
