26
0390
 O        -4.258243615658     -0.155555199923     -1.802267816118
 O        -3.085773875358     -0.669051579031     -1.116804378690
 C        -2.527063463328      0.371902656351     -0.357853481778
 O        -3.040746121645      0.384335478278      0.970720308049
 O        -4.461584090898      0.739535030273      0.858483974106
 C        -1.035930041611      0.155465573911     -0.205373830748
 C        -0.354047769397     -0.707513078012     -1.066514916945
 C         1.025134703655     -0.871771580364     -0.936953176552
 C         1.731709309699     -0.179021883445      0.045430480605
 C         3.226684363046     -0.346369643889      0.201028208687
 O         3.912888326944      0.899826965920      0.114004045286
 O         3.756756277020      1.327301738737     -1.259009042270
 O         3.580982970652     -0.743138067434      1.523225989511
 O         3.062435796977     -2.085178179020      1.672065313287
 C         1.046102747753      0.689374963050      0.904822519435
 C        -0.329362515317      0.856992320876      0.781408662755
 H        -4.846930304825     -0.004164502198     -1.034233224119
 H        -2.773099029584      1.322085277786     -0.845283744434
 H        -4.816829815649      0.105069984622      1.506535447587
 H        -0.904298131149     -1.243812890906     -1.830136209021
 H         1.556220637814     -1.544033005306     -1.605207607041
 H         3.634551259197     -1.054691498316     -0.529095490443
 H         2.967944041064      1.897493128279     -1.181704292384
 H         2.192631821317     -1.899187432251      2.075047452819
 H         1.600528952497      1.228702485685      1.667318154331
 H        -0.860662433215      1.525302936328      1.450146654084
