16
0392
 N         2.111647203424      1.112830354618      1.110158963594
 N         1.035887261706      0.797617958376      0.266145635147
 C         0.362598894085     -0.240955299840      0.643495154822
 N         0.619518554368     -0.956597953890      1.801968280099
 C        -0.762160933375     -0.656034121802     -0.187053933869
 N        -1.447710983029     -1.747404172337      0.042239450142
 O        -2.381151332225     -1.826200717289     -0.945863557669
 N        -2.279796099713     -0.750602087908     -1.830593726909
 C        -1.290490908104     -0.020386297203     -1.367036784171
 N        -0.875064280778      1.167416017368     -1.893511029199
 H         2.446068894788      2.031589225124      0.836736608824
 H         1.800489352565      1.164296977279      2.085292928954
 H         1.610393563442     -1.040962068003      2.010131113446
 H         0.119437589983     -1.835915417395      1.864496040964
 H        -1.113294791313      1.343127682420     -2.859451913827
 H         0.043628014176      1.457979920483     -1.577353230348
