14
0393
 O        -3.079052860057      1.361145394467      0.888486122308
 N        -2.108754921055      1.158843411536      0.174013042204
 O        -1.449960361136      1.988311474062     -0.443086924687
 C        -1.684459435523     -0.227008687436     -0.000068557533
 N        -2.568584555949     -1.170134490793     -0.156808481772
 O        -1.833657610506     -2.295406889954     -0.380868488469
 N        -0.484455682361     -2.047620976337     -0.349190469009
 C        -0.365350830809     -0.761128149193     -0.121293924936
 C         0.937416456229     -0.118636539863      0.022058945746
 N         2.093026569732     -0.613806657312     -0.544735951529
 C         2.968041263985      0.249496615041     -0.133099064040
 O         2.455901822561      1.224109276517      0.635900076949
 N         1.089509519422      0.970760431816      0.739027377417
 H         4.030280625468      0.281075787449     -0.330433702649
