36
0401
 O        -1.465143154214      3.124626793746      0.073481954691
 N        -1.817174689598      2.050433094342     -0.378941609911
 O        -2.531649629259      1.862741275389     -1.368647398806
 N        -1.401900149394      0.908283463123      0.313398048541
 C        -0.361965969400      1.102213293247      1.334302630931
 C         1.017672470336      1.459256945701      0.737598938377
 N         2.106669124672      0.747357323886      1.402960526107
 C         2.288040252211     -0.617814361139      1.174133804931
 N         2.006215989767     -1.544975422806      2.056281697995
 O         2.314145267740     -2.731001941792      1.455882700678
 N         2.751406077749     -2.551429595341      0.170913870995
 C         2.746094223255     -1.256253632610     -0.024660546144
 C         3.118499339136     -0.676318795843     -1.296339664141
 N         2.945621506386      0.579430343555     -1.673438982411
 N         3.413822965885      0.656454450217     -2.948325486570
 N         3.859233859370     -0.490534148452     -3.351506048429
 N         3.681159580815     -1.345688829563     -2.324384146043
 N         2.543165441269      1.257106291589      2.656525010579
 O         3.441474647662      0.651676207149      3.210506735877
 O         1.992877333298      2.286452342121      3.024355876912
 C        -1.501339672706     -0.314649874553     -0.369716271166
 N        -0.423646580633     -0.978863425311     -0.703211158173
 O        -0.867788777304     -2.163387625153     -1.208942816659
 N        -2.236539054195     -2.238394825971     -1.205029032004
 C        -2.654815462418     -1.111459207861     -0.679490631482
 C        -4.068225333288     -0.867049027491     -0.432099383592
 N        -4.946854938736     -1.764443714587     -0.011432525204
 N        -6.126715566854     -1.103221246121      0.094308912601
 N        -5.999551028621      0.144829172263     -0.240128562793
 N        -4.706792447449      0.314948574883     -0.567193318179
 H        -0.313090072485      0.153674631091      1.873196580574
 H        -0.708583273634      1.869950514741      2.024350312955
 H         1.086093064277      1.183307492799     -0.315773950327
 H         1.221648443534      2.524499237849      0.814258504480
 H         3.946301464555     -2.319857201574     -2.399007976040
 H        -4.348465251728      1.197901428477     -0.918186599148
