48
0423
 O        -3.217153499168      0.677968213547      3.120126149831
 N        -3.471616102781      0.548043866722      1.939536741124
 O        -3.945544276525      1.387731490255      1.185069740799
 C        -3.149859363225     -0.825048082898      1.328610123183
 C        -3.869641152516     -1.081231067221     -0.009943983474
 N        -3.448034858735     -0.191077005639     -1.055833807440
 C        -2.401724385942     -0.503010777721     -1.877583939327
 N        -1.929301961348     -1.693478985716     -2.192229858612
 N        -0.897094698452     -1.461099671807     -3.068372819812
 N        -0.726093426036     -0.205831503985     -3.295578017022
 N        -1.666232153388      0.421028410335     -2.533058221770
 O        -1.832023755334      1.777148006944     -2.501272168840
 C        -1.121233419223      2.371641070174     -1.383666386601
 C         0.385456266958      2.244538505825     -1.538531360324
 O         0.907457536435      2.817512754298     -0.306367347467
 N         2.269294798720      2.788596613198     -0.310913646965
 N         3.031917885400      3.635690604624     -1.056564919653
 N         4.245914712976      3.257052195237     -0.849816771162
 N         4.315182369044      2.199859880684      0.019073229649
 C         3.065125753722      1.915177395674      0.340711898679
 N         2.627145752858      0.938201925511      1.186701842656
 C         3.457527302889     -0.213300261957      1.432458362085
 C         2.886954829199     -1.463443174281      0.742805388761
 N         2.338068091456     -1.060338805798     -0.620783783001
 O         3.174742072803     -0.671768814584     -1.412901491332
 O         1.123617164037     -1.069741002267     -0.749291096051
 N         1.731847844027     -2.080228946548      1.542740287950
 O         1.177450576974     -1.325848185587      2.330358961490
 O         1.467830180526     -3.242486138889      1.311193192716
 N         3.919024523011     -2.568749611938      0.589191027873
 O         4.612755342349     -2.723481614733      1.586768177235
 O         3.945107101634     -3.192425461290     -0.451688557407
 N        -1.643043144684     -0.894978414363      1.126343213977
 O        -1.215513398899     -1.997907980112      0.864886548568
 O        -1.030106803733      0.166766003274      1.176629290620
 N        -3.572085364510     -1.836288088895      2.399089305358
 O        -4.779241979696     -2.041198281852      2.416568570573
 O        -2.719725502080     -2.299331694746      3.126077312252
 H        -4.939842267488     -0.986969581786      0.176280162132
 H        -3.651073683114     -2.110104157773     -0.305891994684
 H        -3.681408276853      0.786377070972     -0.951393728435
 H        -1.437206569172      3.415671961035     -1.409515282651
 H        -1.450031967335      1.915904366675     -0.445361387415
 H         0.755944422214      2.815704983907     -2.392673589556
 H         0.702486554288      1.201856029842     -1.623813649193
 H         1.647870326603      0.905536204062      1.439539995836
 H         3.558631604506     -0.434955996411      2.495588345992
 H         4.447578997609     -0.013484243997      1.018999938855
