27
0429
 O         4.537557490622     -1.984278043570      0.624100677087
 N         4.451006871123     -1.167303977794     -0.285246158918
 O         5.346502906193     -0.786760560706     -1.026320830019
 C         3.122401096431     -0.612176220619     -0.536286985767
 N         2.604174596787     -0.644793699548     -1.781880344848
 C         1.397378503834     -0.111441009691     -1.674485426574
 N         1.117296914850      0.263642443697     -0.398704981498
 N        -0.102889573313      0.830688721181     -0.026933749774
 C        -0.986695217814     -0.133268765442      0.640284757535
 C        -2.423864686025      0.169385783810      0.240337009159
 N        -3.364103579036     -0.974994931106      0.609453522733
 O        -4.207058058852     -1.297052241717     -0.203652437683
 O        -3.166885421256     -1.436655191958      1.724130395717
 N        -2.976444882558      1.418204338715      0.931440924429
 O        -4.180785128414      1.472160833895      1.081838857750
 O        -2.139703257238      2.249837768666      1.253482630207
 N        -2.514288736515      0.392124518596     -1.270447569120
 O        -3.035037750307      1.417348935902     -1.659630934527
 O        -2.021871824979     -0.507540278870     -1.933152076857
 C         2.235267047806     -0.061970381619      0.370620477944
 N         2.372155860028      0.279825738564      1.747337051857
 O         3.476186927181      0.133663661270      2.254000230735
 O         1.363472802381      0.713600020840      2.327680047677
 H         0.675530166669      0.019434722611     -2.467864975305
 H         0.075855848859      1.619845087995      0.587328128952
 H        -0.899620332611     -0.127609363595      1.728543056683
 H        -0.755538583844     -1.133717909507      0.271828702424
