25
0431
 O         4.831333882257     -1.638996356356      0.317578530835
 N         4.477855818676     -1.306006291478     -0.819469100438
 O         5.105895057244     -1.498520716618     -1.852046321357
 C         3.201911574966     -0.632191759928     -0.907312363568
 C         2.391362257137     -0.352051025088      0.165593382779
 N         1.316867732390      0.292957259455     -0.406938597468
 N         0.172054448299      0.783975745402      0.214747435321
 C        -0.739337428910     -0.264796118120      0.666055696573
 C        -2.171899703361      0.243019225645      0.549875982047
 N        -2.526180998191      1.255800785023      1.641467075895
 O        -3.703473338671      1.376228999505      1.914177473149
 O        -1.577835945347      1.857032805791      2.129280849137
 N        -3.187270067766     -0.888787389769      0.681896964125
 O        -2.934522996647     -1.673846839233      1.585661701101
 O        -4.131967711310     -0.894926925686     -0.080621993924
 N        -2.374008233534      0.921326563200     -0.806280561893
 O        -2.775440912811      2.067960425124     -0.806179126577
 O        -2.079229234181      0.218526234784     -1.757920138461
 C         1.534500485476      0.355548140380     -1.766151302735
 N         2.675558665691     -0.202233732565     -2.091468390257
 H         2.487285327860     -0.536047625995      1.222967457441
 H         0.414335191375      1.431683086800      0.957850719449
 H        -0.644080695148     -1.112749287083     -0.014022891902
 H        -0.577644515993     -0.616179559904      1.689675295971
 H         0.813931340501      0.813674356714     -2.428417775246
