34
0437
 N         3.020174902026      3.272147718049     -2.230388254215
 N         2.646036422569      2.366002815774     -1.666264915182
 N         1.993055283146      1.447599432837     -1.124410166833
 C         2.604802988892      0.398576996546     -0.476929967383
 C         3.885892838561      0.042678202803     -0.032571306551
 N         5.088931526728      0.786770400627     -0.215949364809
 O         6.155437467702      0.194564347243     -0.111241890755
 O         4.952385758692      1.989678959939     -0.479089428330
 C         3.711017915789     -1.227437484097      0.566946511040
 N         4.684682073322     -2.037840515658      1.294401409858
 O         4.677468380864     -3.241454412131      1.074932123827
 O         5.397932860959     -1.432836796104      2.086454666366
 N         2.461019840346     -1.634488431205      0.521754314962
 N         1.798836635694     -0.645377093863     -0.129065769407
 C         0.357946058799     -0.734270133338     -0.295122808356
 C        -0.361384981090     -0.131370610394      0.921623844643
 N        -1.802194146151     -0.199836016099      0.745524133874
 N        -2.472671678125     -1.314075780218      1.131917440279
 C        -3.720222801432     -1.094146873444      0.777698302159
 N        -4.701255346317     -2.158448533060      0.974658657635
 O        -5.413424595391     -2.413662527361      0.010402095720
 O        -4.700686370379     -2.717445267090      2.062975030469
 C        -3.885182248490      0.155827414153      0.134606512705
 N        -5.082923724856      0.762128967231     -0.347488085343
 O        -6.153470119676      0.325380097739      0.055340995180
 O        -4.937958460833      1.702455493052     -1.141004654722
 C        -2.600450335361      0.716849826419      0.126710112613
 N        -1.979995102128      1.865186363159     -0.309408270834
 N        -2.625255605103      2.858414756435     -0.710108618727
 N        -2.991674568377      3.860030466195     -1.086697674425
 H         0.108744840934     -1.790780121787     -0.402835490995
 H         0.086080851057     -0.196540837713     -1.205179132489
 H        -0.118546691871     -0.690610147957      1.826167409977
 H        -0.083249870501      0.916229323314      1.049842238049
