34
0439
 N        -0.948524351440     -1.664212669717     -1.820927942754
 C        -1.679041478037     -0.775346022276     -1.109198962628
 C        -2.851394505265     -0.962897436554     -0.350648855042
 N        -3.533430208149     -2.193057461284     -0.189126190610
 O        -2.974951368294     -3.211925830262     -0.638284527518
 O        -4.629489240262     -2.183620964778      0.364927544206
 C        -3.194747715552      0.329534966193      0.114403689957
 N        -4.256602054578      0.727032721580      1.036381018950
 O        -4.322163018373      0.099647633047      2.086485349642
 O        -4.958460722920      1.673375709090      0.699819781712
 N        -2.355185390934      1.250044084535     -0.293881932848
 N        -1.433644599639      0.565280161322     -1.049128937769
 C        -0.423929990505      1.346902831101     -1.734770162546
 C         0.580010840211      1.972917973113     -0.769233900289
 N         1.418443644460      0.963934426399     -0.128537771954
 N         1.417497029230     -0.317407135479     -0.586166563665
 C         2.301840308080     -0.954995610320      0.146759016368
 N         2.379662542763     -2.399414876143     -0.041622371437
 O         2.024015298105     -2.828645405207     -1.140233830446
 O         2.743747604976     -3.067727993853      0.913908979555
 C         2.907915645720     -0.101163454239      1.104265415588
 N         3.982971339343     -0.307910089750      2.012774578035
 O         4.177248373792      0.598810704483      2.846943894951
 O         4.661339167988     -1.321299675954      1.914971699197
 C         2.297871542534      1.150723531355      0.892845672086
 N         2.541109675444      2.342518065508      1.479562045367
 H        -1.260120474735     -2.618938898291     -1.664773379786
 H         0.060207073438     -1.533693891141     -1.805488263622
 H         0.068510337831      0.709802385543     -2.468856059685
 H        -0.930442514149      2.159745154004     -2.262000915079
 H         1.218140939121      2.679632562999     -1.312408797387
 H         0.027152238844      2.516382186466      0.004285788501
 H         1.854344768238      3.080251693062      1.415970512965
 H         3.089899262715      2.275720625447      2.330884377985
