14
0442
 O         4.013328309230      0.134741596567     -0.083439848557
 N         2.808311413579      0.143333830096      0.026416412630
 N         2.145768301764      0.698078753915      1.034015588660
 C         0.837605017486      0.467035554106      0.738776130789
 N        -0.203173228495      0.823877162127      1.435278679057
 C        -1.377036157565      0.429957962306      0.848897405903
 N        -2.596509905270      0.639006307682      1.304814925134
 O        -3.426298017632      0.067516363081      0.385601969828
 N        -2.745840252370     -0.518840576455     -0.678118188119
 C        -1.495704633346     -0.293997880847     -0.388971388144
 N        -0.368355494403     -0.652900083776     -1.095850921407
 C         0.813841664539     -0.283747905059     -0.552760622772
 N         2.013461543192     -0.490450298913     -1.003125867933
 H        -0.419398560708     -1.163410784832     -1.971334275069
