39
0443
 O         3.551490184634     -2.291066410145     -2.667092155833
 N         2.709688110986     -1.519236146665     -2.254491284155
 O         1.504965930051     -1.540906525633     -2.470752816318
 C         3.200946227426     -0.390186149939     -1.337843812370
 C         2.284041789096      0.830262883105     -1.362758824781
 N         1.069377334714      0.525625159697     -0.643061575291
 C         0.580913233673      1.380363597337      0.320731686122
 N         1.177910994220      2.510442830736      0.570961936095
 C         0.553281899916      3.264716796936      1.524747384905
 N         0.906001988794      4.450566434658      1.970918061455
 O        -0.090925351004      4.775005601559      2.864702335338
 N        -1.063223893360      3.806133023668      2.982580953572
 C        -0.669996929963      2.864774808018      2.152559153978
 N        -1.257154520636      1.651258797851      1.925793434745
 C        -0.624632847999      0.915801604953      1.056817532956
 N        -1.072718162749     -0.349975402500      0.748431077668
 C        -2.283174652367     -0.875545654976      1.335585546209
 C        -3.165838453082     -1.453198819512      0.231931010691
 N        -4.578375255643     -1.747428036347      0.721307609449
 O        -5.505096621005     -1.459504436837     -0.008571796581
 O        -4.614047071372     -2.280618736062      1.821863238708
 N        -2.627855218464     -2.778985134835     -0.324124540940
 O        -3.440681927711     -3.529477885474     -0.824789330387
 O        -1.419543272035     -2.946238627093     -0.221152861018
 N        -3.231025738042     -0.462737354337     -0.929095051562
 O        -3.683424231950      0.627176783572     -0.631216046962
 O        -2.787068087882     -0.830418648616     -2.003125764523
 N         3.257894948900     -0.946650852778      0.083546296714
 O         3.674567021597     -0.158660793274      0.912259325896
 O         2.842514881238     -2.079365509511      0.257462969210
 N         4.612739503481     -0.057352153212     -1.804087823710
 O         4.644815726081      0.663634106380     -2.791983111824
 O         5.543176323309     -0.539812662963     -1.190935272402
 H         2.109984967922      1.114657846053     -2.403094376486
 H         2.788549956391      1.654340792828     -0.855534258169
 H         0.400214323656     -0.048016972259     -1.140954937078
 H        -0.379486613475     -1.040191257977      0.488095940325
 H        -2.819007216942     -0.054712236990      1.815195229840
 H        -2.099699280402     -1.654574659415      2.079174916515
