42
0444
 N        -6.272403829793      0.644054515666      0.334772661386
 C        -5.076025931786      0.152418350912     -0.006246936351
 C        -4.387142615501     -0.970542915604      0.531447412262
 N        -4.828711814605     -1.817411593522      1.592494169462
 O        -4.101775460802     -2.734845712172      1.957268905773
 O        -5.941360851806     -1.544664794010      2.073829979049
 N        -3.211879496028     -1.182677791269     -0.064798509362
 N        -3.088787665857     -0.252528592192     -0.993437719721
 C        -1.793472156020     -0.158867337208     -1.698669393030
 C        -0.693517975186      0.237543615451     -0.776135854352
 N        -0.150491151841      1.433369113179     -0.719923632393
 N         0.827465611446      1.404437320656      0.253518936106
 C         0.833521619240      0.195178716595      0.768883415003
 C         1.763397628905     -0.315854721336      1.821150676515
 N         3.151527380921      0.033690932321      1.508918180533
 N         3.772078825583      0.908584648811      2.274470413730
 C         4.956414466808      1.134370544893      1.699185969571
 N         5.904244831108      2.031301514910      2.281210296448
 O         6.962984618389      2.179798995381      1.642664629539
 O         5.634685077976      2.583283370685      3.339069601097
 C         5.129438299732      0.402925940714      0.489821431387
 N         6.179135867826      0.376021921826     -0.338413298496
 C         3.918695467078     -0.309292419238      0.403579226654
 N         3.551382952070     -1.222018467689     -0.590513146639
 O         4.352524931003     -1.379964171614     -1.528463827566
 O         2.472132622982     -1.826703277432     -0.488674080659
 N        -0.109247612962     -0.585698202040      0.160135921180
 N        -0.316524342342     -1.939878605542      0.450169684243
 C        -4.182787002029      0.597085960735     -1.001591468709
 N        -4.407358155244      1.654307276159     -1.909223672692
 O        -5.441655839394      2.316960179038     -1.719940854813
 O        -3.604775177879      1.857906623018     -2.824298098027
 H        -6.604289766878      1.475401212051     -0.133293362809
 H        -6.780198230766      0.189688302831      1.080621751345
 H        -1.897043888902      0.593918930630     -2.474918994557
 H        -1.615728441394     -1.138956036814     -2.149323007856
 H         1.656728043507     -1.396964035381      1.907542879399
 H         1.574180420932      0.155149600153      2.787313966473
 H         6.109045628428     -0.164136296790     -1.189038730253
 H         6.957479355408      0.987094798044     -0.133036291996
 H         0.120232763829     -2.497152691954     -0.281905008187
 H        -1.322119006157     -2.105834722851      0.488275781314
