40
0453
 N         0.351193008215      1.474565881873     -2.725710512950
 N         0.143841567883      0.145893227312     -2.344192836355
 C         1.155535815263     -0.752565287444     -2.145211088612
 C         2.595673917326     -0.360824952621     -2.137244812670
 N         3.061855494296     -0.144472027600     -0.759451308053
 N         3.597771082520     -1.175660893679     -0.079335882384
 C         3.676910436899     -0.804136077116      1.196576047049
 N         4.222756294637     -1.635272694471      2.231072579113
 O         4.184552287829     -1.127715226899      3.361798233324
 O         4.670574821338     -2.736512733136      1.946062071903
 C         3.153853920876      0.494686765006      1.375305874413
 N         2.837102633307      1.536503839865      2.173693655355
 N         2.263459014010      2.546171378425      1.467469331204
 N         2.229253514870      2.142564420229      0.198834094402
 O         1.764606818476      2.860256471736     -0.741204159623
 C         2.774272360505      0.877207533590      0.108368729848
 N         0.660680237799     -1.923789594431     -1.797904307134
 N        -0.704901148914     -1.802585319997     -1.772709545984
 C        -1.001298175241     -0.553484633191     -2.075087510359
 C        -2.369481155727      0.036354459985     -2.015837620720
 N        -2.927731903157     -0.138925102695     -0.672006264325
 N        -4.222805596862     -0.447811533162     -0.502281619083
 C        -4.422829373361     -0.576071384529      0.810480924069
 N        -5.693501486065     -0.910523424910      1.386861858360
 O        -5.681448438296     -0.997768261675      2.623004660959
 O        -6.659640183560     -1.076095263674      0.655983406328
 C        -3.225410197665     -0.352483342113      1.525362226763
 N        -2.544563579344     -0.276217777807      2.690457503993
 N        -1.232265196947      0.033769068479      2.480346553120
 N        -1.082320285919      0.161361245369      1.158638550902
 O         0.010947780578      0.468348911462      0.609996147871
 C        -2.300437550968     -0.073307205577      0.542544084925
 H        -0.455370280634      1.810943839392     -3.241388230255
 H         0.555961608276      2.044361190548     -1.892134010746
 H         3.218575673707     -1.159846343563     -2.537956680667
 H         2.743188226719      0.563264325398     -2.699857325342
 H         2.929192600150      1.630133596264      3.174113691839
 H        -2.346059531344      1.104516709134     -2.256926543798
 H        -3.069169759608     -0.460497453039     -2.690227572086
 H        -2.862525271869     -0.444536330738      3.633397605407
