32
0462
 N         4.234193544711     -0.946953125305     -0.405986729361
 C         3.925556991644      0.069175546856      0.433826280447
 N         2.742624609951      0.540049841638      0.709986353183
 N         1.748807122343     -0.228118530039      0.125058746299
 C         0.570669601916      0.279852535071      0.270973641983
 C        -0.570662958943     -0.418801285417     -0.271090072078
 N        -1.748799663515      0.089173906817     -0.125179951873
 N        -2.742618103789     -0.678995573598     -0.710104119854
 C        -3.925549502671     -0.208110684433     -0.433951737452
 N        -4.234199279116      0.808067976906      0.405792156763
 C        -5.048247525908     -0.978367702384     -1.068999001324
 N        -6.033480324079     -1.454159055080     -0.000416980031
 O        -5.768694843933     -2.531626646938      0.502932451499
 O        -6.956599826352     -0.704070752608      0.281855322894
 N        -5.861880531202     -0.173989381727     -2.072549862784
 O        -6.394637635317     -0.832095815115     -2.952479707456
 O        -5.931915045767      1.038577264224     -1.917779841938
 C         5.048236517354      0.839404324565      1.068935342678
 N         6.033828548047      1.314755036960      0.000534088391
 O         6.956493930053      0.564082221219     -0.281723275033
 O         5.769808348132      2.392440929484     -0.502743186831
 N         5.861568019079      0.035131761627      2.072857648903
 O         5.930643454559     -1.177595547836      1.918989513828
 O         6.395060687457      0.693519949753      2.952128218615
 H         3.433567365449     -1.490162296918     -0.710254179912
 H         5.104732085556     -1.438899433959     -0.252817085012
 H         0.411798530863      1.225286733650      0.793799710329
 H        -0.411793526469     -1.364236587686     -0.793914251801
 H        -5.104739673606      1.299994352040      0.252553577312
 H        -3.433581439010      1.351268419586      0.710092324196
 H        -4.669839771821     -1.854886297292     -1.583264873449
 H         4.669850294385      1.716087915937      1.582939478867
