26
0467
 N         3.707666797999     -1.024137520838      1.504875041782
 N         3.598559370039     -0.142399894440      0.794740669607
 N         3.568807498918      0.915847491696      0.140614772631
 C         2.807793143893      0.865931105082     -1.107569624780
 N         1.363393621410      0.929497766709     -0.889157221733
 N         0.764630541779      2.130835700187     -0.776088953683
 C        -0.499485320363      1.902306549036     -0.438642113086
 N        -1.439020217342      2.982906502928     -0.276521468195
 O        -1.042376292493      4.132274189938     -0.392107826659
 O        -2.602301851274      2.636007166691     -0.031712178883
 C        -0.739376601980      0.512970271955     -0.298147892479
 C         0.487197412161     -0.084198499158     -0.589877023900
 C         0.244166259907     -1.474392211292     -0.466423759849
 N         1.174139291780     -2.553192867289     -0.670227179873
 O         2.315995913657     -2.203958946539     -1.006287761130
 O         0.795788362811     -3.702252142909     -0.508482031648
 N        -1.019306342317     -1.703941145445     -0.122955108557
 N        -1.624988152811     -0.502711621512     -0.041238190375
 C        -2.975866309144     -0.434738465694      0.510509759830
 N        -2.973589194840     -0.356590648156      1.971700751107
 N        -2.663452855514     -1.416387164675      2.547592207832
 N        -2.395628925122     -2.305429337601      3.204108391913
 H         3.010034458486     -0.037023840532     -1.683790062937
 H         3.073005827214      1.760270299476     -1.666271141288
 H        -3.507494451444     -1.313283173056      0.136785559036
 H        -3.428391985412      0.485890435436      0.154572385317
