15
0475
 N        -2.277594898096     -0.776125254729      0.134993986002
 C        -0.955535207059     -0.664232070687     -0.005912927812
 N        -0.362179324173     -1.919471464390     -0.309603816611
 N         0.892288564135     -2.053615791636     -0.487259803874
 C         1.667820366679     -0.927573352842     -0.374383264652
 N         2.980291020653     -0.895677188056     -0.528842421900
 O         3.305462307461      0.392197717113     -0.331110976562
 N         2.211175490071      1.217689688266     -0.045304629197
 C         1.186601278428      0.385596234899     -0.073798582203
 C        -0.214064068900      0.516892045145      0.121020575780
 N        -0.811314712882      1.783628881175      0.427742826590
 O        -2.047464391674      1.827386963801      0.586216685526
 O        -0.067798098559      2.755329489545      0.516709744322
 H        -2.687274882024     -1.692583722826      0.015932790227
 H        -2.820313444060      0.050657825222      0.353499814364
