15
0478
 O         3.252216172497      0.792903391039      0.265085774242
 N         3.051598284222     -0.436088195071      0.423853596912
 O         3.943206363977     -1.242410232630      0.648272769260
 N         1.778679408459     -0.956751810266      0.351620464849
 C         0.828687029197     -0.074257934068      0.108512311671
 N         0.767306449471      1.271714675501     -0.098291013204
 N        -0.509750874935      1.792123483293     -0.326106352395
 C        -1.225570496036      0.708137244151     -0.249591754157
 N        -2.524234707756      0.271189009421     -0.337396438333
 C        -2.476661169952     -1.100318406019     -0.128004163084
 N        -1.278118160718     -1.565632672571      0.082262691259
 N        -0.502430604845     -0.428859642878      0.004324541089
 H         1.596700941841      1.850029889593     -0.086909153394
 H        -3.339534802769      0.836672010746     -0.517482767819
 H        -3.362093832652     -1.718250810242     -0.140350506896
