32
0482
 O         0.107620565386      1.036901411747     -1.370260813325
 C         0.038088795925      0.366976053567     -0.362285218961
 C         1.251833041979     -0.207555563948      0.270092454755
 N         1.375554855539     -1.118276262138      1.192722929640
 N         2.733114151228     -1.317899994648      1.366124615655
 C         3.316355586311     -0.507655167209      0.533997175547
 C         4.768758379413     -0.340968692492      0.293872016286
 N         5.068712002141     -0.447136559782     -1.221698578753
 O         4.404548774404     -1.289357710369     -1.797322507923
 O         5.927483226882      0.285333616890     -1.666881399331
 N         5.567956140796     -1.437640373168      1.025039534552
 O         5.524814407222     -1.350276586014      2.235254531833
 O         6.148119660045     -2.246758526447      0.329574911961
 N         5.319839519177      1.015914126466      0.784651648274
 O         4.504162604677      1.920086170335      0.830693753271
 O         6.505649280481      1.044021110006      1.039024406019
 O         2.454569557073      0.224408511561     -0.200478148701
 C        -1.264400180356      0.086464729276      0.291931424274
 N        -1.533029945519     -0.399005823436      1.470117709340
 N        -2.910849511018     -0.394586339885      1.590446077675
 C        -3.359531322662      0.091668798794      0.471811018275
 C        -4.768911036817      0.339530974728      0.088231903308
 N        -5.702095189953      0.145191793781      1.299602198518
 O        -6.263387515202      1.136024258663      1.721661743492
 O        -5.769122103032     -1.003666394815      1.686572056702
 N        -5.277189354788     -0.604701857749     -1.023412952182
 O        -6.477683089167     -0.774189002519     -1.065006767945
 O        -4.413972677830     -1.050651964733     -1.758913893788
 N        -4.929055860885      1.792599295524     -0.422792697640
 O        -4.267715176819      2.607296822844      0.194206771604
 O        -5.693274944116      1.971017838977     -1.348170602467
 O        -2.386962640514      0.426991306192     -0.399805299965
