38
0489
 O         2.063108252581      1.559388866189      2.515766992531
 N         2.556476957210      2.493637490558      1.905503344157
 O         2.877223397724      3.588029308497      2.318135086897
 N         2.734536300179      2.314457634343      0.485961396954
 C         2.865677324069      1.013874901040      0.020527151184
 C         3.975669667116      0.376100544733     -0.535387766479
 N         5.286729014721      0.947676388242     -0.609435640338
 O         5.349204607663      2.185834459592     -0.526376777983
 O         6.241397273805      0.194646101852     -0.723305638809
 C         3.509327807777     -0.912676858281     -0.870531999500
 N         4.195187085042     -1.987761612712     -1.580142074142
 O         3.932438125929     -3.132663524269     -1.237830166966
 O         4.952774615790     -1.636000501475     -2.477199501662
 N         2.235366494697     -1.066506772278     -0.559803610188
 N         1.848027215513      0.117635442507     -0.036923428752
 C         0.469258192723      0.296037401698      0.403427442518
 C        -0.475120149253     -0.312276203603     -0.637528149245
 N        -1.853153602142     -0.124645357209     -0.199743729487
 N        -2.238001443185      1.079041191183      0.289006394245
 C        -3.507908173765      0.934515592760      0.611673736682
 N        -4.231120759648      2.096605963646      1.127331097790
 O        -3.701873042709      2.706962229876      2.046928746338
 O        -5.283352839320      2.367295236106      0.563925975045
 C        -3.978848651953     -0.362704005881      0.315146364619
 N        -5.240873758808     -0.973255035954      0.602894192771
 O        -5.380136447575     -2.154663909895      0.244170277412
 O        -6.080931112346     -0.310010750495      1.192701376454
 C        -2.868906941241     -1.020317729402     -0.223824045373
 N        -2.732006428480     -2.341712035253     -0.633357166855
 N        -2.553451455369     -2.567778821033     -2.049004620745
 O        -2.049968886141     -1.659499824060     -2.689338318440
 O        -2.882861897229     -3.672165134448     -2.425499624407
 H         3.501380874520      2.917060742875      0.181686906596
 H         0.338515583440     -0.173078868391      1.381466138557
 H         0.291700149593      1.365116826552      0.511265573926
 H        -0.340411607913      0.151544746700     -1.617532001528
 H        -0.302271315671     -1.382221903362     -0.739868976460
 H        -3.522600427346     -2.915322220948     -0.332784957319
