30
0495
 N         5.217480288700     -4.119929541035     -0.033622024696
 N         4.480916873442     -3.264540422147      0.065112036242
 N         3.866785323742     -2.214216097858      0.339439156102
 C         2.559854779658     -2.003792620413     -0.032936245761
 C         1.654874091974     -2.599193811035     -0.956323106534
 N         1.887392961905     -3.685772188365     -1.876971488692
 O         3.061638242925     -4.056823407543     -1.978533878083
 O         0.933924231916     -4.141676904936     -2.490324796866
 N         0.463662322558     -2.003141725611     -0.960114376189
 N         0.541202779426     -1.017518013226     -0.076338949098
 C        -0.648935722553     -0.182965886252      0.110621421504
 C        -0.542508947250      1.101936402647     -0.724506989007
 N        -1.820115859505      1.792214809401     -0.774587948303
 N        -2.489342293426      1.984445733386     -1.951420094587
 N        -3.551676457020      2.635183821171     -1.703982909075
 N        -3.593057951881      2.873155592610     -0.363961631519
 C        -2.507641306050      2.348682800002      0.267047991080
 N        -2.072624577623      2.273404073920      1.506987697832
 N        -2.886384439932      2.884208664961      2.452991353845
 O        -2.502753834838      2.796307843194      3.606180861723
 O        -3.932165875104      3.470816057011      2.100525331502
 C         1.784924946408     -0.966977583567      0.510430436919
 N         2.157401900804      0.012227328164      1.486725742593
 O         1.370923745836      0.948950800039      1.677134705642
 O         3.230695488412     -0.144682002825      2.057721444710
 H        -1.480815009825     -0.796292483504     -0.237487460126
 H        -0.767348481124      0.058913660438      1.164598267982
 H        -0.284516874874      0.870789456540     -1.759452946365
 H         0.205827676299      1.767079436047     -0.289384330474
 H        -4.337518022999      3.379206208785      0.098932727697
