17
0496
 N         4.803005621615     -0.813164251822      1.672844356326
 C         3.759802212653     -0.763658726628      1.166872775394
 C         2.472038883287     -0.698556182086      0.547360042053
 N         2.124981645977     -1.474792290654     -0.508365572499
 C         0.875564927393     -1.097200758644     -0.757455293862
 N         0.011959046768     -1.531879801232     -1.708467550147
 N        -1.165801979904     -0.975000118046     -1.718297332295
 C        -1.530813251816     -0.022062081293     -0.847960308861
 N        -2.891112218529      0.485667636141     -1.010698438957
 O        -3.245326298422      1.372224139815     -0.209379836308
 O        -3.589949137275      0.030612352884     -1.895059470194
 C        -0.702124112818      0.493070402421      0.174191582752
 N        -0.935114685001      1.423934874842      1.090360001396
 N         0.522515914529     -0.108683151476      0.159306123362
 N         1.541704548098      0.157122372999      1.005157075192
 H        -1.848466314602      1.862719277677      1.090722732981
 H        -0.202764801952      1.659646305105      1.748769113666
