16
0499
 O         0.775023346425      2.633152633562      0.486708739041
 N        -0.280091100432      1.838099686313      0.149122009338
 C         0.006288035472      0.577828952105      0.068780973943
 C         1.298332761166     -0.068119995988      0.293497403487
 N         2.461950525824      0.481721367820      0.627699391506
 N         3.344671009570     -0.540849965378      0.713503162660
 N         2.774239276488     -1.682512565612      0.448097842192
 N         1.492952902142     -1.405682132788      0.182863740086
 C        -1.141126761203     -0.258735784379     -0.295071908671
 N        -1.163545825648     -1.574095552906     -0.453499688448
 N        -2.440825732879     -1.902855953552     -0.788338579364
 N        -3.187935666737     -0.848794551491     -0.839049091898
 N        -2.388457179898      0.194300888241     -0.531892718569
 H         0.385793735378      3.524296237089      0.500166874679
 H         0.798293749973     -2.111555955175     -0.060645446732
 H        -2.735763075643      1.143602692139     -0.501942703249
