17
0500
 N         0.020255146767      1.156581081395     -1.578541774979
 C        -0.117273388440     -0.067203567680     -0.785295856584
 C         1.143804195987     -0.279283791684      0.003196207856
 N         1.312801776134     -0.976391431480      1.111379793513
 N         2.642751324817     -0.899067683548      1.411491957348
 N         3.271553260562     -0.188857162144      0.533847179189
 N         2.340499951555      0.207287133511     -0.362861761680
 C        -1.342328422301     -0.109685589496      0.095084990189
 N        -2.500784757620      0.447109765272     -0.201975820412
 N        -3.332875145140      0.153747909198      0.839122629883
 N        -2.722848552148     -0.550505680915      1.738661036143
 N        -1.465515553897     -0.732150231742      1.282506799354
 H        -0.726203036558      1.179277311273     -2.270989549652
 H        -0.151697131208      1.961280551304     -0.975126640475
 H        -0.192704230009     -0.899347985068     -1.499699246723
 H         2.556983669363      0.801992651235     -1.152771212832
 H        -0.736219107865     -1.204783279429      1.811871269861
