31
0514
 O         5.159784635043      0.271890819303      0.627995588381
 N         4.390494111941      0.026838141814     -0.291525104749
 O         4.684649102138     -0.254628775100     -1.448045012958
 C         2.963606075106      0.113200029774     -0.000726441714
 N         2.524399450339      1.117164483969      0.744076902275
 N         1.187181545069      0.984294142767      0.741001810665
 C         0.335784705634      1.874343394108      1.532219745343
 C        -0.557949080753      2.783376194522      0.670825948722
 C        -1.130229280591      2.088824165483     -0.577049686824
 N        -1.524804100874      0.699995270473     -0.335067878940
 N        -2.812941709979      0.322290111810     -0.397155449261
 C        -2.787994948999     -0.989221626377     -0.210354835890
 N        -4.053367799558     -1.708610038977     -0.113676068818
 O        -4.936737150459     -1.384686657178     -0.896050300862
 O        -4.121498975939     -2.554617128555      0.771151160361
 C        -1.475010793765     -1.469587331832     -0.020187369061
 N        -1.014924983608     -2.819465193075      0.185030933827
 O        -1.730492420322     -3.723909182761     -0.221436220850
 O         0.072797615759     -2.945162151530      0.751321129964
 C        -0.668907986436     -0.341047256638     -0.113380908548
 C         0.754440475852     -0.085593538811      0.010556820394
 C         1.905324258218     -0.676985734925     -0.497193695670
 N         1.953632505026     -1.863141058369     -1.313687731345
 O         0.941541672331     -2.114908645815     -1.970886456336
 O         2.982755786599     -2.522919126485     -1.284197354732
 H         1.008795154382      2.456604335407      2.161140734610
 H        -0.276350405208      1.239871486960      2.179856765756
 H        -1.369905780388      3.145635700538      1.309517430528
 H         0.006157981100      3.657525701543      0.330122790477
 H        -2.021874272537      2.597236467900     -0.943108012548
 H        -0.388255385119      2.075593000058     -1.380789232198
