25
0516
 O        -2.705428196728      4.166909364130     -0.138026412857
 N        -3.207519355367      3.051789981352     -0.178951625484
 O        -4.398744753781      2.785611044437     -0.306497247134
 C        -2.293889513049      1.915594401915     -0.062505236333
 N        -0.965258296097      2.064747723062      0.062659226146
 C        -0.545686028179      0.806094575680      0.130475547995
 C         0.856666179257      0.437843229505      0.265642875899
 N         1.840526592519      1.327962790647      0.333119254227
 C         2.926054990925      0.544865023423      0.440636065579
 N         4.281315551819      1.085263070776      0.542895779077
 O         4.387925480368      2.304232925329      0.545716010934
 O         5.192804909728      0.266923586954      0.618023170570
 N         2.718497252215     -0.763720733322      0.443066845958
 N         1.377834559058     -0.828264428623      0.327010097935
 C         0.746204498322     -2.148137543095      0.345557454364
 C        -0.524088504098     -2.220378133293     -0.495144297934
 C        -1.725109052343     -1.499179206290      0.107405365018
 N        -1.618878758871     -0.041342789284      0.038190152263
 N        -2.754273733609      0.673398917130     -0.084419942991
 H         0.539288571934     -2.422013479439      1.386888821066
 H         1.504391853629     -2.833296590784     -0.035711275045
 H        -0.794118233081     -3.278514032988     -0.576404961007
 H        -0.331731418385     -1.861162555322     -1.512400602121
 H        -1.867742336196     -1.789909034311      1.154938313841
 H        -2.638842259991     -1.745318107588     -0.434963379967
