15
0519
 O         3.531736157861     -1.783338986941     -0.168375777669
 N         2.997805778821     -0.682988508441     -0.242251909117
 O         3.507279422160      0.403688859259     -0.427453867808
 N         1.608710983147     -0.728664164544     -0.086725862340
 C         0.752935815783      0.346511109169     -0.122869613862
 N         0.974993687379      1.652544292910     -0.303169239841
 N        -0.214407355379      2.310110657409     -0.253283871490
 C        -1.159747579457      1.405179303045     -0.042795118679
 N        -2.494332409408      1.538040082930      0.085576274387
 N        -3.192440654699      0.459145032940      0.290154961512
 C        -2.543353431188     -0.763276376129      0.366286159266
 N        -1.263409581828     -1.008450457779      0.257258202594
 N        -0.572257051587      0.134466674288      0.045764504856
 H         1.254338933626     -1.665781886726      0.063754976880
 H        -3.187752715231     -1.617285631392      0.538130181311
