21
0530
 C         0.708852771558      1.244937439137     -0.622416881030
 N        -0.637049256804      1.103354028739     -0.052852666076
 C        -1.296313609444     -0.188159961412     -0.232228976101
 N        -0.354670872016     -1.201442060888      0.238280008406
 C         1.002787297271     -1.154201394447     -0.319370048109
 N         1.542018803278      0.174596588803     -0.113393225997
 N         2.047971588947      0.404455630960      1.215615912966
 O         2.138319665877      1.568951831204      1.564315303543
 O         2.401988702662     -0.583172271562      1.836154503097
 N        -0.902721213971     -2.478777884535      0.397132504928
 O        -2.120733976705     -2.542648112501      0.514491958875
 O        -0.109634611019     -3.412278071277      0.431339734714
 N        -1.477503143353      2.212620680668     -0.195486585052
 O        -0.930407131043      3.286926044932     -0.414879515892
 O        -2.678751176764      2.011922296798     -0.060833106651
 H         0.693703376789      1.153110452018     -1.716341640919
 H         1.116017825659      2.206966791831     -0.336288339160
 H        -1.567903798629     -0.354941526163     -1.289159070303
 H        -2.193221099455     -0.221219490961      0.375989386677
 H         0.999093337040     -1.339545740245     -1.401482265396
 H         1.618156520122     -1.891555271101      0.181413007482
