9
065CID8252
 C         1.287678011818     -0.199390027672      0.000000000000
 C        -0.073160925712      0.433757866834      0.000000000000
 C        -1.227993665981     -0.231523208605      0.000000000000
 H         1.867672349998      0.107562265761     -0.880639981760
 H         1.220818016389     -1.292423329621      0.000000000000
 H         1.867672349998      0.107562265761      0.880639981760
 H        -0.092202176322      1.524536756885      0.000000000000
 H        -2.185476305119      0.282108238885      0.000000000000
 H        -1.259107655106     -1.319390828262      0.000000000000
