7
090CID177
 O         1.158026455421      0.225596138235      0.000399691707
 C        -1.252927388685      0.190985790314      0.000076786331
 C         0.128957796999     -0.411756484713     -0.000079247615
 H        -1.809786323539     -0.156124775505      0.880319064760
 H        -1.193608996212      1.281594830817      0.001355407956
 H        -1.808984523429     -0.154026167019     -0.881507195233
 H         0.152922979445     -1.525569332128     -0.001064507906
