34
15HNFX
 O         1.900392952552      1.968719342787      2.367001164019
 N         0.708030418062      1.982571361816      2.105518509323
 O        -0.184424630833      2.471783031703      2.788315558549
 N         0.312396687249      1.330612012948      0.908458099010
 C         1.396805639797      0.938445896523      0.015949517265
 C         1.847459185097     -0.526909946517      0.234243497854
 N         2.697595415508     -0.545321281333      1.459394996195
 F         3.143573205714     -1.870008371925      1.621206793383
 F         3.875913435450      0.131099765908      1.127873517556
 N         2.680029785838     -0.856850563430     -0.973964529726
 F         1.751282404947     -0.835088395328     -2.041225645804
 F         2.989866555166     -2.210834150572     -0.882918852524
 C         0.699559972399     -1.509931641843      0.548949952880
 N        -0.463249421721     -1.408481133456     -0.315183152019
 N        -0.675476116127     -2.504180109978     -1.186428678660
 O        -1.794748811059     -2.630896059307     -1.664575802735
 O         0.292308983249     -3.219639361404     -1.401130493132
 C        -1.641683760791     -0.662170215841      0.083896052138
 C        -1.710291276742      0.782819437604     -0.468172135596
 N        -1.144745587974      0.838858692763     -1.845423275481
 F        -1.813190376949     -0.095039126906     -2.626908819319
 F        -1.584585681602      2.064223555521     -2.382460071614
 N        -3.130310361527      1.300626484698     -0.470476101364
 F        -3.873812039098      0.380871332712     -1.207655253219
 F        -3.563428688147      1.031306259266      0.853837214131
 C        -0.938267688055      1.836995677416      0.350249344009
 H         2.256353410405      1.599435031345      0.127638179507
 H         1.019390656436      1.008894550236     -1.001715786591
 H         0.384688489645     -1.312323076274      1.576784331492
 H         1.090946802489     -2.521651543271      0.490157282131
 H        -2.514573954072     -1.198496348452     -0.280180027267
 H        -1.683819835970     -0.604400851628      1.173256312312
 H        -1.560689558023      2.126032028807      1.192395653649
 H        -0.769296211315      2.718927715414     -0.276707350352
