7
Coordinates from ORCA-job 001CID6375
  O   -0.67399778530870     -1.07470094822743     -0.14568747853634
  O   -0.63416639543098      1.08490429075039      0.15027704325018
  N   -0.09722192133457     -0.00402761271002     -0.00680520243326
  C   1.40277396612584     -0.01866169412628     -0.00646033758922
  H   1.74316717321705      0.79319095317276     -0.63816073848159
  H   1.74021666764667     -0.98428220018519     -0.35740871320472
  H   1.72042828508469      0.15927721132577      1.01624542699495
