13
Coordinates from ORCA-job 003CID15311932
  O   1.66384630008499      1.05823240670540     -1.61832795032687
  O   -0.41147622013800     -2.24020142713529      0.10145989985980
  O   -1.07030113405373      1.41735302624649      1.30592302909624
  O   2.33120720129553     -0.72126651484188     -0.53548666289429
  O   0.51633412100006     -1.23307236967905      1.80639773708707
  O   1.09390162783404      1.73641625632012      1.23758281896767
  N   1.52951959556024      0.13385662206409     -0.84774893655967
  N   0.07984920792514     -1.29405081264187      0.67948077791335
  N   0.06112434318620      1.20053265001194      0.91458462295120
  N   -0.81091850083156      0.15060073711659     -1.16344574367931
  N   -2.00212398447957     -0.04889932410879     -0.88733073054716
  N   -3.11661761677109     -0.21039277125190     -0.82244126866684
  C   0.13575505938777      0.05099150119416     -0.17074759320119
