20
Coordinates from ORCA-job 007CID4510
  O   -0.13948748252805     -1.26704933537811      0.55421396471257
  O   2.35689582751959     -0.20676156182682     -0.31606563891097
  O   -1.55202500351870      1.22489721763685      0.12549562378221
  O   -0.86194186217629     -2.84903338097331     -0.93199421857303
  O   -0.73982060734842     -3.28715954198083      1.20655306113986
  O   3.37723573939385      1.69684585843028      0.39617418683109
  O   -3.42753203700004      1.70665095987370     -1.06968830368191
  O   4.54020313544784     -0.11217962652656     -0.01128190270809
  O   -3.02813936465719      2.70569521964359      0.83666848439802
  N   -0.63411563224071     -2.61110793709469      0.22781433542130
  N   3.54663998883310      0.54949301774042      0.06849021280901
  N   -2.80831306376492      1.95300634561952     -0.06598400211513
  C   0.02915016649335     -0.39975982994860     -0.57821728758478
  C   1.14828128652002      0.55371284365118     -0.20976452317650
  C   -1.25841120489426      0.31560968520279     -0.94026186997095
  H   0.32513481291097     -0.98890386147399     -1.44527640817646
  H   1.01761884632593      0.94059980636281      0.79738782674708
  H   1.16248365839336      1.39182297853057     -0.90677570034345
  H   -2.06317009868462     -0.40463707325279     -1.06902517664023
  H   -1.12628711502482      0.85635822576398     -1.87816266395963
