14
Coordinates from ORCA-job 013CID7416
  O   2.32967498130462      1.08790054732250     -0.00005462500139
  O   2.32968380329173     -1.08786307866934     -0.00008396779197
  N   1.76022040993147      0.00001639511456     -0.00006384460487
  C   0.28338029404984      0.00001051182780     -0.00001905052571
  C   -0.38898245754575      1.21181342105585      0.00001841361393
  C   -0.38897280428540     -1.21179776587741     -0.00002351596840
  C   -1.77391661640083      1.20427672914460      0.00005117037478
  C   -1.77390702554785     -1.20427207205138      0.00000915454162
  C   -2.46604002811259     -0.00000042515274      0.00004560520694
  H   0.17399749187077      2.13172138180917      0.00002035616027
  H   0.17401449632044     -2.13170124429865     -0.00005302677654
  H   -2.31345712032199      2.14097915659463      0.00007957631650
  H   -2.31344010181848     -2.14097877765340      0.00000472909973
  H   -3.54765532273598     -0.00000473916619      0.00006903535511
