15
Coordinates from ORCA-job 014CID6947
  O   0.33137398847049     -2.16186203476545     -0.09860100600484
  O   2.21765612047585      1.31376401563508     -0.53056439853205
  O   2.36180653930231     -0.54310023600902      0.60083962072874
  N   1.72604918781982      0.33023592246374      0.02196283771492
  C   0.26203100496902      0.22260835328681      0.00868684868912
  C   -0.38614865024912     -1.02013813458939     -0.02307569297936
  C   -0.46749539675459      1.40327093460795      0.02815256177971
  C   -1.78143013314933     -1.02715367329147     -0.01482477773255
  C   -1.84760344519680      1.37626555171771      0.05328613339155
  C   -2.50235731061825      0.15096140679621      0.02865644970431
  H   0.07584900048067      2.33560467846319      0.02810739661380
  H   -2.29889726259339     -1.97856534895657     -0.04854899043215
  H   -2.40727710795480      2.29942761225571      0.08539680723415
  H   -3.58299793929076      0.11014691003505      0.04124977047941
  H   -0.27805858571112     -2.90566597764953     -0.17942357065474
