32
Coordinates from ORCA-job 021CID141415
  N   0.70986213283750      0.57468831771211      0.19220035491766
  C   0.63549899326712      1.15628958088817      1.50772103726565
  C   1.60712966124787      0.57601574597818      2.54900876422632
  C   2.90951662649354      0.05061988877915      2.02912783437959
  N   1.82024745340001      1.70500370887929      3.59025927934423
  O   2.93925032660606      2.15678248952984      3.71948271932340
  O   0.80470354063598      2.07287914295385      4.16314391868148
  N   0.93501580623177     -0.54804818786135      3.39567993432713
  O   -0.13361315418487     -0.99625350472308      3.00797506377830
  O   1.55692979932616     -0.91254192749675      4.37383800807403
  C   0.07612580564564     -0.67579367230241     -0.16341134303703
  C   -1.29981840867171     -0.51976202238293     -0.81612583986364
  C   -2.24856721870402      0.39707607858597     -0.10282560549610
  N   -1.11160750795167     -0.08820955144001     -2.29413155547978
  O   -0.70577505784270     -0.94681206502327     -3.05408859220693
  O   -1.35213439309548      1.07597155998316     -2.55728111903590
  N   -1.95838511526833     -1.92294330946051     -0.92512980812525
  O   -1.36507156912009     -2.86668347719110     -0.43184905015430
  O   -3.04041591531207     -1.95354114931864     -1.48147252918910
  N   1.60056369295853      1.14906038002067     -0.72609161039855
  O   2.20518029797953      2.14791789367011     -0.35775724224755
  O   1.68650609749669      0.60084940816820     -1.81279143061363
  H   -0.37532903365467      1.05517482376828      1.88228841933103
  H   0.84585321132323      2.21493440068377      1.40792387005762
  H   2.72687300103274     -0.78107406615067      1.35239305529352
  H   3.53356332555548     -0.28938556794396      2.84709237857821
  H   3.42754237046346      0.83492999575689      1.48902983778161
  H   -0.06702244073356     -1.24275526625171      0.74850085300024
  H   0.72537762449490     -1.24618997487399     -0.81798984436132
  H   -2.40475829752327      0.04105534071581      0.91358806351476
  H   -3.20228297919232      0.42979974992632     -0.61660126360061
  H   -1.83825868574143      1.40024523642063     -0.07480655806510
