38
Coordinates from ORCA-job 030CID5462985
  O   2.09835674105780     -3.32662869651272      0.27279056560113
  O   -2.09853271510272     -3.32843071446258     -0.26970459008868
  O   2.64467488764650      3.43835779362847      0.70081195757611
  O   -2.64300726486573      3.43660404206882     -0.69897316873803
  O   1.12675216124838     -2.35495285052506     -1.42660259762327
  O   -1.12797394666739     -2.35525252819141      1.42940281393198
  O   1.00897614841968      2.33012088189204      1.61740889075052
  O   -1.00665696383396      2.32803713477575     -1.61403153716310
  O   6.66142855510203     -1.06725162955934     -0.56972337933063
  O   -6.66137143090555     -1.06958746150172      0.57089653764473
  O   6.75459307180339      1.00213225900585      0.11037931256898
  O   -6.75540983854641      0.99912641691355     -0.11112042920346
  N   1.87105659453125     -2.37294475809228     -0.45495982341583
  N   -1.87057825552019     -2.37370054051338      0.45646883112849
  N   2.05858994702796      2.40479530737927      0.98855886565120
  N   -2.06006658758603      2.40262203492048     -0.99154830887875
  N   6.15415992958054     -0.02612706431683     -0.17183310746097
  N   -6.15468279773703     -0.02907897234137      0.17066132127669
  C   1.89243928282564      0.00727884260456      0.29203896705620
  C   -1.89289733877506      0.00594296743510     -0.29248513492548
  C   2.59301026570169     -1.12102085642729     -0.14589405076578
  C   -2.59300935837133     -1.12230977975730      0.14634775551957
  C   2.68439421145182      1.13448284055654      0.55200973286721
  C   -2.68535528008923      1.13250611548593     -0.55367565703016
  C   0.43568017346762     -0.00871524468081      0.50049337509270
  C   -0.43612273279366     -0.00950300211799     -0.50087933057614
  C   3.96630355910580     -1.16389053013727     -0.27865255063484
  C   -3.96630563489177     -1.16569811036568      0.27891296401572
  C   4.05598790727030      1.14978954805230      0.38604162426263
  C   -4.05697279652849      1.14733869196981     -0.38788750783554
  C   4.68056006725146     -0.01203604098622     -0.01663371515314
  C   -4.68106161656607     -0.01441870853105      0.01573179375631
  H   0.09957673832748      0.02238684254865      1.52549124423670
  H   -0.10001440696838      0.02078496907578     -1.52590278826921
  H   4.47308863568273     -2.06833298446290     -0.57630596633281
  H   -4.47272321558789     -2.07011645192808      0.57726844761802
  H   4.62171102146224      2.04934333954768      0.56420874544197
  H   -4.62309773762742      2.04644689755067     -0.56701010257107
