8
Coordinates from ORCA-job 032CID11724
  O   -0.64541181554583      0.75868576472668     -0.01375067139434
  O   0.40401233445695     -1.24954801789582     -0.13347979987204
  O   1.54279857361310      0.59376582637852      0.17346969706081
  N   0.54979569228516     -0.05936042232322      0.00948594716493
  C   -1.84057975177576     -0.00449339604954     -0.20935537124861
  H   -2.62547015045698      0.74610594191443     -0.20413238984992
  H   -1.99671725097128     -0.71407209237104      0.59979339374705
  H   -1.82832763160536     -0.52598360438001     -1.16353080560788
