16
Coordinates from ORCA-job 038CID10996
  O   -1.31901741113994      0.50563514113532     -0.18773566447222
  O   -2.67296498175301     -0.87663186335242      0.79949670698183
  N   -1.79975119852479     -0.12670101917904      1.02815139001338
  C   1.07006741125374      0.87988158687156     -0.47933611080922
  C   1.56485761475228     -0.41357616776545      0.14696101141082
  C   -0.22690433870250      1.39533360372480      0.10558013891880
  C   2.88726377535744     -0.88130882574355     -0.43630869396643
  H   1.82046193726732      1.66509542662542     -0.34819909265532
  H   0.95027956845498      0.75140427035099     -1.55742751871757
  H   0.81166053919081     -1.19129225803415      0.01216950676636
  H   1.66642713172499     -0.27526311173146      1.22672290461709
  H   -0.15652925756526      1.50727396971628      1.18952422130428
  H   -0.49567079174294      2.36080413568399     -0.32332132281650
  H   2.80476897972436     -1.05842002043302     -1.50900581694271
  H   3.67246196738678     -0.13946445548411     -0.28640000605012
  H   3.21885710431573     -1.81003683238515      0.02596341641752
