8
Coordinates from ORCA-job 051CID6324
  C   -0.75922746777810      0.00000949214244     -0.00000250959087
  C   0.75922746141365     -0.00000949084857      0.00000251130704
  H   -1.15818119375462      0.65211316237287      0.77668235404140
  H   -1.15810791403912      0.34673324141950     -0.95303361714696
  H   -1.15809438205490     -0.99871252872946      0.17638472984527
  H   1.15810792349797     -0.34673324693862      0.95303361417312
  H   1.15809438334830      0.99871252987731     -0.17638472757822
  H   1.15818118936682     -0.65211315929547     -0.77668235505077
