4
Coordinates from ORCA-job 054CID712
  O   0.59851579724715     -0.00001079466085     -0.00000876763177
  C   -0.60508988458973      0.00004891524790      0.00000133576767
  H   -1.19670394318103      0.24397971822165     -0.90498619044012
  H   -1.19672196947640     -0.24381783880870      0.90499362230423
