6
Coordinates from ORCA-job 055CID887
  O   0.71839054084965      0.00301563667201      0.00140379201815
  C   -0.70190179705246     -0.01647586093793     -0.00545164262098
  H   -1.11433631656240     -0.76328369970155      0.68050537994845
  H   -1.11394190840601     -0.19334567492002     -1.00415438470135
  H   -1.03172289649851      0.96485449777980      0.32645976989217
  H   1.02761238766973     -0.86026489889232     -0.29166290453645
