7
Coordinates from ORCA-job 062CID6335
  C   -1.36626839482759      0.00016457292093     -0.00012379831308
  C   0.07920066765661      0.00026736825954     -0.00019577277232
  C   1.28194164276944      0.00018016083997     -0.00001030525547
  H   -1.75897107025583      0.06548775463039      1.01418886196426
  H   -1.75944833423403      0.84577231633861     -0.56382274252054
  H   -1.75919836531839     -0.91098679899499     -0.45044311835303
  H   2.34254384420980     -0.00008537399444      0.00000687525019
