7
Coordinates from ORCA-job 064CID123173
  C   -0.87788668224686     -0.00024744550736     -0.00000000043822
  C   0.47047354017558      0.64380962498730     -0.00000000015528
  C   0.47079831761130     -0.64362358789500     -0.00000000159564
  H   -1.47780942809613     -0.00039900600122      0.90904476976273
  H   -1.47780942903453     -0.00039901218096     -0.90904476939360
  H   1.00991877854561      1.57419713879793      0.00000000240265
  H   1.01071491304503     -1.57373771220069     -0.00000000058264
