7
Coordinates from ORCA-job 079CID6329
  N   -0.73454275395924     -0.00044183628838     -0.00202943756021
  C   0.72415741350133      0.00196633177134      0.02253265701444
  H   1.18408410881403      0.09091909629700      1.01649447563736
  H   1.09335959268086      0.82558989344983     -0.58701219552911
  H   1.09350892288577     -0.91674628121552     -0.43112460743057
  H   -1.08994444324387      0.85028440913682      0.41451813628905
  H   -1.08952283067889     -0.76217161315111      0.56122098157904
