
     RDKit          3D

 29 28  0  0  0  0  0  0  0  0999 V2000
    1.3945    0.1003   -0.2405 C   0  0  0  0  0  0  0  0  0  0  0  0
   -0.1166    0.3871   -0.0076 C   0  0  0  0  0  0  0  0  0  0  0  0
   -0.9926   -0.6297   -0.7942 C   0  0  0  0  0  0  0  0  0  0  0  0
   -0.7923   -1.9642   -0.3411 O   0  0  0  0  0  0  0  0  0  0  0  0
   -1.5984   -2.9059   -1.0317 N   0  0  0  0  0  4  0  0  0  0  0  0
   -2.3515   -2.4638   -1.9001 O   0  0  0  0  0  0  0  0  0  0  0  0
   -1.4233   -4.0579   -0.6455 O   0  0  0  0  0  1  0  0  0  0  0  0
   -0.4617    0.3654    1.5087 C   0  0  0  0  0  0  0  0  0  0  0  0
   -0.2103   -0.9044    2.0989 O   0  0  0  0  0  0  0  0  0  0  0  0
   -0.5212   -0.9379    3.4831 N   0  0  0  0  0  4  0  0  0  0  0  0
   -0.9547    0.1019    3.9812 O   0  0  0  0  0  0  0  0  0  0  0  0
   -0.3052   -2.0323    3.9949 O   0  0  0  0  0  1  0  0  0  0  0  0
   -0.4343    1.8195   -0.5265 C   0  0  0  0  0  0  0  0  0  0  0  0
   -0.1409    1.9160   -1.9186 O   0  0  0  0  0  0  0  0  0  0  0  0
   -0.4125    3.2056   -2.4479 N   0  0  0  0  0  4  0  0  0  0  0  0
   -0.1597    3.2880   -3.6463 O   0  0  0  0  0  0  0  0  0  0  0  0
   -0.8517    4.0477   -1.6649 O   0  0  0  0  0  1  0  0  0  0  0  0
    1.7739   -1.1794    0.2542 O   0  0  0  0  0  0  0  0  0  0  0  0
    3.1542   -1.4524    0.0707 N   0  0  0  0  0  4  0  0  0  0  0  0
    3.4821   -2.5577    0.4923 O   0  0  0  0  0  0  0  0  0  0  0  0
    3.8294   -0.5735   -0.4663 O   0  0  0  0  0  1  0  0  0  0  0  0
    1.9790    0.8772    0.2707 H   0  0  0  0  0  0  0  0  0  0  0  0
    1.6091    0.1463   -1.3161 H   0  0  0  0  0  0  0  0  0  0  0  0
   -2.0478   -0.3543   -0.6634 H   0  0  0  0  0  0  0  0  0  0  0  0
   -0.7416   -0.5727   -1.8614 H   0  0  0  0  0  0  0  0  0  0  0  0
    0.1436    1.1284    2.0166 H   0  0  0  0  0  0  0  0  0  0  0  0
   -1.5237    0.6185    1.6298 H   0  0  0  0  0  0  0  0  0  0  0  0
   -1.4976    2.0368   -0.3581 H   0  0  0  0  0  0  0  0  0  0  0  0
    0.1719    2.5474    0.0292 H   0  0  0  0  0  0  0  0  0  0  0  0
  1  2  1  0
  2  3  1  0
  3  4  1  0
  4  5  1  0
  5  6  2  0
  5  7  1  0
  2  8  1  0
  8  9  1  0
  9 10  1  0
 10 11  2  0
 10 12  1  0
  2 13  1  0
 13 14  1  0
 14 15  1  0
 15 16  2  0
 15 17  1  0
  1 18  1  0
 18 19  1  0
 19 20  2  0
 19 21  1  0
  1 22  1  0
  1 23  1  0
  3 24  1  0
  3 25  1  0
  8 26  1  0
  8 27  1  0
 13 28  1  0
 13 29  1  0
M  CHG  8   5   1   7  -1  10   1  12  -1  15   1  17  -1  19   1  21  -1
M  END
$$$$
