
     RDKit          3D

 23 22  0  0  0  0  0  0  0  0999 V2000
    3.0743   -1.1254    2.2859 O   0  0  0  0  0  1  0  0  0  0  0  0
    2.8242   -0.9054    1.1035 N   0  0  0  0  0  4  0  0  0  0  0  0
    3.5491   -0.9735    0.1110 O   0  0  0  0  0  0  0  0  0  0  0  0
    1.4765   -0.5144    0.8955 O   0  0  0  0  0  0  0  0  0  0  0  0
    1.1831   -0.2585   -0.4751 C   0  0  0  0  0  0  0  0  0  0  0  0
   -0.2954    0.1590   -0.6143 C   0  0  0  0  0  0  0  0  0  0  0  0
   -1.2518   -0.9531   -0.1519 C   0  0  0  0  0  0  0  0  0  0  0  0
   -1.0226   -2.1160   -0.9439 O   0  0  0  0  0  0  0  0  0  0  0  0
   -1.8848   -3.1886   -0.6016 N   0  0  0  0  0  4  0  0  0  0  0  0
   -1.6876   -4.1913   -1.2833 O   0  0  0  0  0  1  0  0  0  0  0  0
   -2.6954   -2.9892    0.3035 O   0  0  0  0  0  0  0  0  0  0  0  0
   -0.6015    1.4532    0.1581 C   0  0  0  0  0  0  0  0  0  0  0  0
    0.2246    2.4983   -0.3494 O   0  0  0  0  0  0  0  0  0  0  0  0
   -0.0119    3.7412    0.2911 N   0  0  0  0  0  4  0  0  0  0  0  0
    0.6999    4.6423   -0.1453 O   0  0  0  0  0  1  0  0  0  0  0  0
   -0.8706    3.7628    1.1734 O   0  0  0  0  0  0  0  0  0  0  0  0
    1.3639   -1.1604   -1.0734 H   0  0  0  0  0  0  0  0  0  0  0  0
    1.8252    0.5467   -0.8534 H   0  0  0  0  0  0  0  0  0  0  0  0
   -0.4603    0.3415   -1.6849 H   0  0  0  0  0  0  0  0  0  0  0  0
   -1.0837   -1.1774    0.9090 H   0  0  0  0  0  0  0  0  0  0  0  0
   -2.2855   -0.6114   -0.2914 H   0  0  0  0  0  0  0  0  0  0  0  0
   -1.6571    1.7135    0.0081 H   0  0  0  0  0  0  0  0  0  0  0  0
   -0.4125    1.3063    1.2289 H   0  0  0  0  0  0  0  0  0  0  0  0
  1  2  1  0
  2  3  2  0
  2  4  1  0
  4  5  1  0
  5  6  1  0
  6  7  1  0
  7  8  1  0
  8  9  1  0
  9 10  1  0
  9 11  2  0
  6 12  1  0
 12 13  1  0
 13 14  1  0
 14 15  1  0
 14 16  2  0
  5 17  1  0
  5 18  1  0
  6 19  1  0
  7 20  1  0
  7 21  1  0
 12 22  1  0
 12 23  1  0
M  CHG  6   1  -1   2   1   9   1  10  -1  14   1  15  -1
M  END
$$$$
