
     RDKit          3D

 25 24  0  0  0  0  0  0  0  0999 V2000
   -0.1714   -0.1456    2.0479 N   0  0  0  0  0  0  0  0  0  0  0  0
    0.0143   -0.1416    0.5739 C   0  0  0  0  0  0  0  0  0  0  0  0
   -0.8429   -1.2687   -0.0700 C   0  0  0  0  0  0  0  0  0  0  0  0
   -2.2192   -1.0635    0.2546 O   0  0  0  0  0  0  0  0  0  0  0  0
   -3.0577   -2.0805   -0.2643 N   0  0  0  0  0  4  0  0  0  0  0  0
   -4.2384   -1.9168    0.0311 O   0  0  0  0  0  1  0  0  0  0  0  0
   -2.5174   -2.9709   -0.9208 O   0  0  0  0  0  0  0  0  0  0  0  0
   -0.4448    1.2355    0.0088 C   0  0  0  0  0  0  0  0  0  0  0  0
    0.4275    2.2665    0.4727 O   0  0  0  0  0  0  0  0  0  0  0  0
    0.0247    3.5534    0.0455 N   0  0  0  0  0  4  0  0  0  0  0  0
    0.7647    4.4446    0.4551 O   0  0  0  0  0  1  0  0  0  0  0  0
   -0.9736    3.6196   -0.6732 O   0  0  0  0  0  0  0  0  0  0  0  0
    1.5173   -0.3929    0.2659 C   0  0  0  0  0  0  0  0  0  0  0  0
    1.7354   -0.3275   -1.1422 O   0  0  0  0  0  0  0  0  0  0  0  0
    3.0869   -0.5655   -1.4975 N   0  0  0  0  0  4  0  0  0  0  0  0
    3.2759   -0.4856   -2.7085 O   0  0  0  0  0  1  0  0  0  0  0  0
    3.8705   -0.8276   -0.5856 O   0  0  0  0  0  0  0  0  0  0  0  0
   -1.1586   -0.0173    2.2840 H   0  0  0  0  0  0  0  0  0  0  0  0
    0.0965   -1.0442    2.4534 H   0  0  0  0  0  0  0  0  0  0  0  0
   -0.5096   -2.2408    0.3178 H   0  0  0  0  0  0  0  0  0  0  0  0
   -0.7176   -1.2519   -1.1602 H   0  0  0  0  0  0  0  0  0  0  0  0
   -1.4730    1.4410    0.3359 H   0  0  0  0  0  0  0  0  0  0  0  0
   -0.4222    1.2060   -1.0884 H   0  0  0  0  0  0  0  0  0  0  0  0
    1.7983   -1.3870    0.6398 H   0  0  0  0  0  0  0  0  0  0  0  0
    2.1342    0.3615    0.7721 H   0  0  0  0  0  0  0  0  0  0  0  0
  1  2  1  0
  2  3  1  0
  3  4  1  0
  4  5  1  0
  5  6  1  0
  5  7  2  0
  2  8  1  0
  8  9  1  0
  9 10  1  0
 10 11  1  0
 10 12  2  0
  2 13  1  0
 13 14  1  0
 14 15  1  0
 15 16  1  0
 15 17  2  0
  1 18  1  0
  1 19  1  0
  3 20  1  0
  3 21  1  0
  8 22  1  0
  8 23  1  0
 13 24  1  0
 13 25  1  0
M  CHG  6   5   1   6  -1  10   1  11  -1  15   1  16  -1
M  END
$$$$
