
     RDKit          3D

 14 15  0  0  0  0  0  0  0  0999 V2000
   -2.6254   -0.5421   -0.6176 N   0  0  0  0  0  0  0  0  0  0  0  0
   -1.3130   -0.2344   -0.3489 C   0  0  0  0  0  0  0  0  0  0  0  0
   -0.3669   -0.7969   -1.0527 N   0  0  0  0  0  0  0  0  0  0  0  0
    0.8578   -0.3963   -0.6561 N   0  0  0  0  0  0  0  0  0  0  0  0
    1.9411   -0.8756   -1.2675 N   0  0  0  0  0  0  0  0  0  0  0  0
    2.8849   -0.2753   -0.6184 N   0  0  0  0  0  4  0  0  0  0  0  0
    4.1123   -0.3847   -0.8118 O   0  0  0  0  0  1  0  0  0  0  0  0
    2.4449    0.6274    0.4336 N   0  0  0  0  0  0  0  0  0  0  0  0
    1.1425    0.5082    0.3613 C   0  0  0  0  0  0  0  0  0  0  0  0
    0.1598    1.1055    1.0792 N   0  0  0  0  0  0  0  0  0  0  0  0
   -1.0373    0.7907    0.7884 N   0  0  0  0  0  4  0  0  0  0  0  0
   -2.0678    1.2809    1.3581 O   0  0  0  0  0  1  0  0  0  0  0  0
   -2.8172   -0.9217   -1.5381 H   0  0  0  0  0  0  0  0  0  0  0  0
   -3.3156    0.1144   -0.2546 H   0  0  0  0  0  0  0  0  0  0  0  0
  1  2  1  0
  2  3  2  0
  3  4  1  0
  4  5  1  0
  5  6  2  0
  6  7  1  0
  6  8  1  0
  8  9  2  0
  9 10  1  0
 10 11  2  0
 11 12  1  0
  9  4  1  0
 11  2  1  0
  1 13  1  0
  1 14  1  0
M  CHG  4   6   1   7  -1  11   1  12  -1
M  END
$$$$
