
     RDKit          3D

 22 23  0  0  0  0  0  0  0  0999 V2000
   -0.7064   -1.8948    1.3853 N   0  0  0  0  0  0  0  0  0  0  0  0
   -1.2992   -0.8714    0.6210 N   0  0  0  0  0  0  0  0  0  0  0  0
   -2.6240   -0.7847    0.5143 N   0  0  0  0  0  0  0  0  0  0  0  0
   -2.7536    0.3171   -0.2412 C   0  0  0  0  0  0  0  0  0  0  0  0
   -4.0650    0.8220   -0.6250 N   0  0  0  0  0  4  0  0  0  0  0  0
   -4.0915    1.8031   -1.3820 O   0  0  0  0  0  1  0  0  0  0  0  0
   -5.0629    0.2371   -0.1759 O   0  0  0  0  0  0  0  0  0  0  0  0
   -1.5819    0.9120   -0.6325 N   0  0  0  0  0  0  0  0  0  0  0  0
   -0.6674    0.1324   -0.0837 C   0  0  0  0  0  0  0  0  0  0  0  0
    0.7406    0.3538   -0.1757 C   0  0  0  0  0  0  0  0  0  0  0  0
    1.2927    1.5535   -0.1723 N   0  0  0  0  0  0  0  0  0  0  0  0
    2.6256    1.2657   -0.3092 C   0  0  0  0  0  0  0  0  0  0  0  0
    3.6545    2.2961   -0.3449 N   0  0  0  0  0  4  0  0  0  0  0  0
    4.8268    1.9426   -0.5445 O   0  0  0  0  0  1  0  0  0  0  0  0
    3.2830    3.4662   -0.1673 O   0  0  0  0  0  0  0  0  0  0  0  0
    2.9366   -0.0331   -0.3993 N   0  0  0  0  0  0  0  0  0  0  0  0
    1.7307   -0.6058   -0.3229 N   0  0  0  0  0  0  0  0  0  0  0  0
    1.5787   -1.9942   -0.4526 N   0  0  0  0  0  0  0  0  0  0  0  0
   -0.6553   -1.5977    2.3620 H   0  0  0  0  0  0  0  0  0  0  0  0
   -1.3703   -2.6729    1.4208 H   0  0  0  0  0  0  0  0  0  0  0  0
    1.2975   -2.2667   -1.3888 H   0  0  0  0  0  0  0  0  0  0  0  0
    0.9108   -2.3800    0.2140 H   0  0  0  0  0  0  0  0  0  0  0  0
  1  2  1  0
  2  3  1  0
  3  4  2  0
  4  5  1  0
  5  6  1  0
  5  7  2  0
  4  8  1  0
  8  9  2  0
  9 10  1  0
 10 11  2  0
 11 12  1  0
 12 13  1  0
 13 14  1  0
 13 15  2  0
 12 16  2  0
 16 17  1  0
 17 18  1  0
  9  2  1  0
 17 10  1  0
  1 19  1  0
  1 20  1  0
 18 21  1  0
 18 22  1  0
M  CHG  4   5   1   6  -1  13   1  14  -1
M  END
$$$$
