
     RDKit          3D

 34 40  0  0  0  0  0  0  0  0999 V2000
   -0.3488   -1.9477   -1.8995 N   0  0  0  0  0  0  0  0  0  0  0  0
   -1.0005   -0.8950   -1.7343 N   0  0  0  0  0  0  0  0  0  0  0  0
   -2.3861   -1.0948   -1.7605 C   0  0  0  0  0  0  0  0  0  0  0  0
   -3.0325   -1.6901   -2.7596 N   0  0  0  0  0  0  0  0  0  0  0  0
   -4.3713   -1.6668   -2.3577 O   0  0  0  0  0  0  0  0  0  0  0  0
   -4.5220   -1.0391   -1.1174 N   0  0  0  0  0  0  0  0  0  0  0  0
   -3.2847   -0.6711   -0.7735 C   0  0  0  0  0  0  0  0  0  0  0  0
   -2.9415   -0.0184    0.4812 C   0  0  0  0  0  0  0  0  0  0  0  0
   -3.3709   -0.4625    1.6661 N   0  0  0  0  0  0  0  0  0  0  0  0
   -2.7479    0.3495    2.6059 O   0  0  0  0  0  0  0  0  0  0  0  0
   -1.9249    1.2891    1.9905 N   0  0  0  0  0  0  0  0  0  0  0  0
   -2.0864    1.0788    0.6820 C   0  0  0  0  0  0  0  0  0  0  0  0
   -1.4393    1.8907   -0.3324 C   0  0  0  0  0  0  0  0  0  0  0  0
   -2.0377    2.3109   -1.4497 N   0  0  0  0  0  0  0  0  0  0  0  0
   -1.0474    3.0264   -2.1290 O   0  0  0  0  0  0  0  0  0  0  0  0
    0.1673    2.9875   -1.4428 N   0  0  0  0  0  0  0  0  0  0  0  0
   -0.0980    2.2914   -0.3384 C   0  0  0  0  0  0  0  0  0  0  0  0
    0.8529    1.9247    0.6260 N   0  0  0  0  0  0  0  0  0  0  0  0
    2.0251    1.9122    0.1928 N   0  0  0  0  0  0  0  0  0  0  0  0
    2.9428    1.4064    1.1243 C   0  0  0  0  0  0  0  0  0  0  0  0
    4.0866    2.0362    1.3791 N   0  0  0  0  0  0  0  0  0  0  0  0
    4.7161    1.2330    2.3330 O   0  0  0  0  0  0  0  0  0  0  0  0
    3.9512    0.1031    2.6350 N   0  0  0  0  0  0  0  0  0  0  0  0
    2.8699    0.2136    1.8592 C   0  0  0  0  0  0  0  0  0  0  0  0
    1.7789   -0.7454    1.8424 C   0  0  0  0  0  0  0  0  0  0  0  0
    1.0512   -1.0229    2.9276 N   0  0  0  0  0  0  0  0  0  0  0  0
    0.0612   -1.8917    2.4858 O   0  0  0  0  0  0  0  0  0  0  0  0
    0.1694   -2.1195    1.1178 N   0  0  0  0  0  0  0  0  0  0  0  0
    1.2576   -1.4427    0.7378 C   0  0  0  0  0  0  0  0  0  0  0  0
    1.7631   -1.4529   -0.6273 C   0  0  0  0  0  0  0  0  0  0  0  0
    3.0327   -1.1997   -0.9575 N   0  0  0  0  0  0  0  0  0  0  0  0
    3.0740   -1.3417   -2.3480 O   0  0  0  0  0  0  0  0  0  0  0  0
    1.8140   -1.6474   -2.8647 N   0  0  0  0  0  0  0  0  0  0  0  0
    1.0261   -1.7043   -1.7942 C   0  0  0  0  0  0  0  0  0  0  0  0
  1  2  2  0
  2  3  1  0
  3  4  2  0
  4  5  1  0
  5  6  1  0
  6  7  2  0
  7  8  1  0
  8  9  2  0
  9 10  1  0
 10 11  1  0
 11 12  2  0
 12 13  1  0
 13 14  2  0
 14 15  1  0
 15 16  1  0
 16 17  2  0
 17 18  1  0
 18 19  2  0
 19 20  1  0
 20 21  2  0
 21 22  1  0
 22 23  1  0
 23 24  2  0
 24 25  1  0
 25 26  2  0
 26 27  1  0
 27 28  1  0
 28 29  2  0
 29 30  1  0
 30 31  2  0
 31 32  1  0
 32 33  1  0
 33 34  2  0
  7  3  1  0
 12  8  1  0
 17 13  1  0
 24 20  1  0
 29 25  1  0
 34  1  1  0
 34 30  1  0
M  END
$$$$
