
     RDKit          3D

 58 58  0  0  0  0  0  0  0  0999 V2000
   -6.6963   -2.7206    2.5304 O   0  0  0  0  0  1  0  0  0  0  0  0
   -6.8511   -2.2029    1.4280 N   0  0  0  0  0  4  0  0  0  0  0  0
   -7.7316   -2.3735    0.5846 O   0  0  0  0  0  0  0  0  0  0  0  0
   -5.8282   -1.2717    1.1107 O   0  0  0  0  0  0  0  0  0  0  0  0
   -6.0075   -0.6713   -0.1694 C   0  0  0  0  0  0  0  0  0  0  0  0
   -4.8553    0.3239   -0.4789 C   0  0  0  0  0  0  0  0  0  0  0  0
   -3.4955   -0.4129   -0.3633 C   0  0  0  0  0  0  0  0  0  0  0  0
   -2.4364    0.4993   -0.6601 O   0  0  0  0  0  0  0  0  0  0  0  0
   -1.1820   -0.0673   -0.5521 C   0  0  0  0  0  0  0  0  0  0  0  0
   -1.0359   -1.3859   -0.3170 N   0  0  0  0  0  0  0  0  0  0  0  0
    0.2230   -1.8922   -0.2290 N   0  0  0  0  0  0  0  0  0  0  0  0
    1.2600   -1.0553   -0.4032 C   0  0  0  0  0  0  0  0  0  0  0  0
    2.5155   -1.5906   -0.2158 O   0  0  0  0  0  0  0  0  0  0  0  0
    3.5536   -0.9329   -0.9453 C   0  0  0  0  0  0  0  0  0  0  0  0
    4.6719   -0.4387    0.0116 C   0  0  0  0  0  0  0  0  0  0  0  0
    4.0724    0.5918    1.0080 C   0  0  0  0  0  0  0  0  0  0  0  0
    5.0947    1.1602    1.8229 O   0  0  0  0  0  0  0  0  0  0  0  0
    4.5903    2.0936    2.7655 N   0  0  0  0  0  4  0  0  0  0  0  0
    5.4739    2.5967    3.4540 O   0  0  0  0  0  1  0  0  0  0  0  0
    3.3731    2.2767    2.7744 O   0  0  0  0  0  0  0  0  0  0  0  0
    5.7889    0.2455   -0.8209 C   0  0  0  0  0  0  0  0  0  0  0  0
    6.3403   -0.6918   -1.7449 O   0  0  0  0  0  0  0  0  0  0  0  0
    7.3495   -0.1249   -2.5664 N   0  0  0  0  0  4  0  0  0  0  0  0
    7.8271   -0.9367   -3.3548 O   0  0  0  0  0  1  0  0  0  0  0  0
    7.6000    1.0685   -2.4018 O   0  0  0  0  0  0  0  0  0  0  0  0
    5.2376   -1.6648    0.7830 C   0  0  0  0  0  0  0  0  0  0  0  0
    6.3803   -1.2915    1.5495 O   0  0  0  0  0  0  0  0  0  0  0  0
    6.9350   -2.3781    2.2739 N   0  0  0  0  0  4  0  0  0  0  0  0
    6.3750   -3.4688    2.1628 O   0  0  0  0  0  1  0  0  0  0  0  0
    7.9264   -2.0575    2.9236 O   0  0  0  0  0  0  0  0  0  0  0  0
    1.1152    0.2652   -0.6268 N   0  0  0  0  0  0  0  0  0  0  0  0
   -0.1429    0.7711   -0.7170 N   0  0  0  0  0  0  0  0  0  0  0  0
   -4.9051    1.5303    0.5000 C   0  0  0  0  0  0  0  0  0  0  0  0
   -4.5877    1.1133    1.8257 O   0  0  0  0  0  0  0  0  0  0  0  0
   -4.5996    2.1845    2.7559 N   0  0  0  0  0  4  0  0  0  0  0  0
   -4.2963    1.8292    3.8914 O   0  0  0  0  0  1  0  0  0  0  0  0
   -4.9051    3.2964    2.3245 O   0  0  0  0  0  0  0  0  0  0  0  0
   -5.0233    0.8554   -1.9285 C   0  0  0  0  0  0  0  0  0  0  0  0
   -6.2875    1.5019   -2.0665 O   0  0  0  0  0  0  0  0  0  0  0  0
   -6.5114    1.9929   -3.3795 N   0  0  0  0  0  4  0  0  0  0  0  0
   -5.6235    1.7955   -4.2088 O   0  0  0  0  0  1  0  0  0  0  0  0
   -7.5967    2.5551   -3.4953 O   0  0  0  0  0  0  0  0  0  0  0  0
   -6.0147   -1.4532   -0.9406 H   0  0  0  0  0  0  0  0  0  0  0  0
   -6.9676   -0.1400   -0.1917 H   0  0  0  0  0  0  0  0  0  0  0  0
   -3.3618   -0.8154    0.6487 H   0  0  0  0  0  0  0  0  0  0  0  0
   -3.4771   -1.2462   -1.0787 H   0  0  0  0  0  0  0  0  0  0  0  0
    3.9587   -1.6829   -1.6360 H   0  0  0  0  0  0  0  0  0  0  0  0
    3.2010   -0.1103   -1.5802 H   0  0  0  0  0  0  0  0  0  0  0  0
    3.5804    1.3920    0.4398 H   0  0  0  0  0  0  0  0  0  0  0  0
    3.3301    0.0940    1.6449 H   0  0  0  0  0  0  0  0  0  0  0  0
    5.3557    1.0940   -1.3674 H   0  0  0  0  0  0  0  0  0  0  0  0
    6.5843    0.6177   -0.1636 H   0  0  0  0  0  0  0  0  0  0  0  0
    5.5216   -2.4454    0.0651 H   0  0  0  0  0  0  0  0  0  0  0  0
    4.4628   -2.0639    1.4508 H   0  0  0  0  0  0  0  0  0  0  0  0
   -4.1836    2.2915    0.1748 H   0  0  0  0  0  0  0  0  0  0  0  0
   -5.9110    1.9695    0.4854 H   0  0  0  0  0  0  0  0  0  0  0  0
   -4.2227    1.5702   -2.1581 H   0  0  0  0  0  0  0  0  0  0  0  0
   -4.9608    0.0116   -2.6283 H   0  0  0  0  0  0  0  0  0  0  0  0
  1  2  1  0
  2  3  2  0
  2  4  1  0
  4  5  1  0
  5  6  1  0
  6  7  1  0
  7  8  1  0
  8  9  1  0
  9 10  2  0
 10 11  1  0
 11 12  2  0
 12 13  1  0
 13 14  1  0
 14 15  1  0
 15 16  1  0
 16 17  1  0
 17 18  1  0
 18 19  1  0
 18 20  2  0
 15 21  1  0
 21 22  1  0
 22 23  1  0
 23 24  1  0
 23 25  2  0
 15 26  1  0
 26 27  1  0
 27 28  1  0
 28 29  1  0
 28 30  2  0
 12 31  1  0
 31 32  2  0
  6 33  1  0
 33 34  1  0
 34 35  1  0
 35 36  1  0
 35 37  2  0
  6 38  1  0
 38 39  1  0
 39 40  1  0
 40 41  1  0
 40 42  2  0
 32  9  1  0
  5 43  1  0
  5 44  1  0
  7 45  1  0
  7 46  1  0
 14 47  1  0
 14 48  1  0
 16 49  1  0
 16 50  1  0
 21 51  1  0
 21 52  1  0
 26 53  1  0
 26 54  1  0
 33 55  1  0
 33 56  1  0
 38 57  1  0
 38 58  1  0
M  CHG  8   1  -1   2   1  18   1  19  -1  23   1  24  -1  28   1  29  -1
M  CHG  4  35   1  36  -1  40   1  41  -1
M  END
$$$$
