
     RDKit          3D

 30 29  0  0  0  0  0  0  0  0999 V2000
    4.6090    0.4410   -0.1116 O   0  0  0  0  0  1  0  0  0  0  0  0
    4.1135    0.2525    0.9974 N   0  0  0  0  0  4  0  0  0  0  0  0
    4.5596    0.5474    2.1030 O   0  0  0  0  0  0  0  0  0  0  0  0
    2.9292   -0.3917    1.0484 N   0  0  0  0  0  0  0  0  0  0  0  0
    1.9212    0.0979    0.1046 C   0  0  0  0  0  0  0  0  0  0  0  0
    0.5808   -0.6976    0.2413 C   0  0  0  0  0  0  0  0  0  0  0  0
    0.2081   -0.9287    1.6566 N   0  0  0  0  0  0  0  0  0  0  0  0
   -0.2797    0.1358    2.3178 N   0  0  0  0  0  4  0  0  0  0  0  0
   -1.4512   -0.0062    2.6564 O   0  0  0  0  0  1  0  0  0  0  0  0
    0.4702    1.0921    2.4692 O   0  0  0  0  0  0  0  0  0  0  0  0
   -0.5755   -0.1443   -0.6953 C   0  0  0  0  0  0  0  0  0  0  0  0
   -1.8577   -1.0499   -0.6308 C   0  0  0  0  0  0  0  0  0  0  0  0
   -2.9495   -0.5463    0.1947 N   0  0  0  0  0  0  0  0  0  0  0  0
   -3.5757    0.5712   -0.2406 N   0  0  0  0  0  4  0  0  0  0  0  0
   -4.0006    1.2814    0.6638 O   0  0  0  0  0  1  0  0  0  0  0  0
   -3.6118    0.7618   -1.4546 O   0  0  0  0  0  0  0  0  0  0  0  0
   -0.1060   -0.0973   -2.0931 N   0  0  0  0  0  0  0  0  0  0  0  0
    0.0408    1.1377   -2.6318 N   0  0  0  0  0  4  0  0  0  0  0  0
    0.5583    2.0016   -1.9293 O   0  0  0  0  0  1  0  0  0  0  0  0
   -0.3628    1.2136   -3.7872 O   0  0  0  0  0  0  0  0  0  0  0  0
    2.6379   -0.2227    2.0074 H   0  0  0  0  0  0  0  0  0  0  0  0
    2.2903   -0.0288   -0.9202 H   0  0  0  0  0  0  0  0  0  0  0  0
    1.7448    1.1674    0.2684 H   0  0  0  0  0  0  0  0  0  0  0  0
    0.8136   -1.7052   -0.1364 H   0  0  0  0  0  0  0  0  0  0  0  0
   -0.5496   -1.5990    1.7294 H   0  0  0  0  0  0  0  0  0  0  0  0
   -0.8502    0.8585   -0.3420 H   0  0  0  0  0  0  0  0  0  0  0  0
   -1.5812   -2.0416   -0.2516 H   0  0  0  0  0  0  0  0  0  0  0  0
   -2.2511   -1.2628   -1.6340 H   0  0  0  0  0  0  0  0  0  0  0  0
   -2.7259   -0.3273    1.1632 H   0  0  0  0  0  0  0  0  0  0  0  0
   -0.7488   -0.5103   -2.7634 H   0  0  0  0  0  0  0  0  0  0  0  0
  1  2  1  0
  2  3  2  0
  2  4  1  0
  4  5  1  0
  5  6  1  0
  6  7  1  0
  7  8  1  0
  8  9  1  0
  8 10  2  0
  6 11  1  0
 11 12  1  0
 12 13  1  0
 13 14  1  0
 14 15  1  0
 14 16  2  0
 11 17  1  0
 17 18  1  0
 18 19  1  0
 18 20  2  0
  4 21  1  0
  5 22  1  0
  5 23  1  0
  6 24  1  0
  7 25  1  0
 11 26  1  0
 12 27  1  0
 12 28  1  0
 13 29  1  0
 17 30  1  0
M  CHG  8   1  -1   2   1   8   1   9  -1  14   1  15  -1  18   1  19  -1
M  END
$$$$
