
     RDKit          3D

 19 19  0  0  0  0  0  0  0  0999 V2000
    3.4173   -1.6257    0.0587 O   0  0  0  0  0  1  0  0  0  0  0  0
    2.9983   -0.4641    0.1335 N   0  0  0  0  0  4  0  0  0  0  0  0
    3.7083    0.5412    0.2581 O   0  0  0  0  0  0  0  0  0  0  0  0
    1.5432   -0.2630    0.0681 C   0  0  0  0  0  0  0  0  0  0  0  0
    0.6975   -1.3707   -0.0364 C   0  0  0  0  0  0  0  0  0  0  0  0
   -0.6834   -1.1486   -0.0995 C   0  0  0  0  0  0  0  0  0  0  0  0
   -1.5411   -2.3083   -0.2149 N   0  0  0  0  0  4  0  0  0  0  0  0
   -1.9568   -2.5854   -1.3464 O   0  0  0  0  0  1  0  0  0  0  0  0
   -1.7291   -2.9620    0.8185 O   0  0  0  0  0  0  0  0  0  0  0  0
   -1.2486    0.1317   -0.0557 C   0  0  0  0  0  0  0  0  0  0  0  0
   -2.6111    0.2333   -0.1044 O   0  0  0  0  0  0  0  0  0  0  0  0
   -0.3781    1.2291    0.0482 C   0  0  0  0  0  0  0  0  0  0  0  0
   -0.8969    2.6022    0.0978 N   0  0  0  0  0  4  0  0  0  0  0  0
   -0.0821    3.5258    0.2069 O   0  0  0  0  0  1  0  0  0  0  0  0
   -2.1264    2.7474    0.0265 O   0  0  0  0  0  0  0  0  0  0  0  0
    1.0173    1.0383    0.1096 C   0  0  0  0  0  0  0  0  0  0  0  0
    1.0900   -2.3867   -0.0696 H   0  0  0  0  0  0  0  0  0  0  0  0
   -2.9065    1.1707   -0.0892 H   0  0  0  0  0  0  0  0  0  0  0  0
    1.6881    1.8949    0.1903 H   0  0  0  0  0  0  0  0  0  0  0  0
  1  2  1  0
  2  3  2  0
  2  4  1  0
  4  5  2  0
  5  6  1  0
  6  7  1  0
  7  8  1  0
  7  9  2  0
  6 10  2  0
 10 11  1  0
 10 12  1  0
 12 13  1  0
 13 14  1  0
 13 15  2  0
 12 16  2  0
 16  4  1  0
  5 17  1  0
 11 18  1  0
 16 19  1  0
M  CHG  6   1  -1   2   1   7   1   8  -1  13   1  14  -1
M  END
$$$$
