
     RDKit          3D

 21 21  0  0  0  0  0  0  0  0999 V2000
    2.4888   -1.6626   -1.5331 O   0  0  0  0  0  1  0  0  0  0  0  0
    2.0987   -0.4950   -1.5755 N   0  0  0  0  0  4  0  0  0  0  0  0
    2.4436    0.3625   -2.3899 O   0  0  0  0  0  0  0  0  0  0  0  0
    1.1803   -0.1144   -0.6161 N   0  0  0  0  0  0  0  0  0  0  0  0
    0.3158   -1.2125   -0.1696 C   0  0  0  0  0  0  0  0  0  0  0  0
   -0.6181   -0.7922    0.8809 N   0  0  0  0  0  0  0  0  0  0  0  0
   -1.4149   -1.8192    1.3493 N   0  0  0  0  0  4  0  0  0  0  0  0
   -2.5371   -1.5146    1.7560 O   0  0  0  0  0  1  0  0  0  0  0  0
   -0.9319   -2.9517    1.3143 O   0  0  0  0  0  0  0  0  0  0  0  0
   -1.3565    0.4080    0.5047 C   0  0  0  0  0  0  0  0  0  0  0  0
   -0.4567    1.4904    0.1262 N   0  0  0  0  0  0  0  0  0  0  0  0
    0.1392    2.1810    1.1547 N   0  0  0  0  0  4  0  0  0  0  0  0
   -0.4450    2.1740    2.2393 O   0  0  0  0  0  1  0  0  0  0  0  0
    1.1787    2.7860    0.8877 O   0  0  0  0  0  0  0  0  0  0  0  0
    0.4124    1.0746   -0.9677 C   0  0  0  0  0  0  0  0  0  0  0  0
   -0.2370   -1.6322   -1.0237 H   0  0  0  0  0  0  0  0  0  0  0  0
    0.9570   -2.0028    0.2430 H   0  0  0  0  0  0  0  0  0  0  0  0
   -2.0156    0.1901   -0.3495 H   0  0  0  0  0  0  0  0  0  0  0  0
   -2.0390    0.7484    1.2953 H   0  0  0  0  0  0  0  0  0  0  0  0
    1.0512    1.9130   -1.2770 H   0  0  0  0  0  0  0  0  0  0  0  0
   -0.2139    0.8691   -1.8493 H   0  0  0  0  0  0  0  0  0  0  0  0
  1  2  1  0
  2  3  2  0
  2  4  1  0
  4  5  1  0
  5  6  1  0
  6  7  1  0
  7  8  1  0
  7  9  2  0
  6 10  1  0
 10 11  1  0
 11 12  1  0
 12 13  1  0
 12 14  2  0
 11 15  1  0
 15  4  1  0
  5 16  1  0
  5 17  1  0
 10 18  1  0
 10 19  1  0
 15 20  1  0
 15 21  1  0
M  CHG  6   1  -1   2   1   7   1   8  -1  12   1  13  -1
M  END
$$$$
