
     RDKit          3D

 28 28  0  0  0  0  0  0  0  0999 V2000
   -0.8555    3.3909   -1.0817 O   0  0  0  0  0  1  0  0  0  0  0  0
    0.1952    2.8315   -0.7653 N   0  0  0  0  0  4  0  0  0  0  0  0
    1.3303    3.3000   -0.8607 O   0  0  0  0  0  0  0  0  0  0  0  0
    0.0937    1.5335   -0.2954 N   0  0  0  0  0  0  0  0  0  0  0  0
   -1.2256    1.2217    0.2854 C   0  0  0  0  0  0  0  0  0  0  0  0
   -1.4279   -0.2035    0.6061 N   0  0  0  0  0  0  0  0  0  0  0  0
   -2.5871   -0.4472    1.3222 N   0  0  0  0  0  4  0  0  0  0  0  0
   -3.0480   -1.5878    1.2606 O   0  0  0  0  0  1  0  0  0  0  0  0
   -3.0352    0.4874    1.9876 O   0  0  0  0  0  0  0  0  0  0  0  0
   -1.2400   -1.1191   -0.5347 C   0  0  0  0  0  0  0  0  0  0  0  0
    0.0779   -1.0148   -1.1882 N   0  0  0  0  0  0  0  0  0  0  0  0
    0.1670   -1.7369   -2.3657 N   0  0  0  0  0  4  0  0  0  0  0  0
   -0.8886   -1.9649   -2.9581 O   0  0  0  0  0  1  0  0  0  0  0  0
    1.2972   -2.0559   -2.7370 O   0  0  0  0  0  0  0  0  0  0  0  0
    1.2256   -1.2217   -0.2854 C   0  0  0  0  0  0  0  0  0  0  0  0
    1.2563   -0.3152    0.8775 N   0  0  0  0  0  0  0  0  0  0  0  0
    2.2249   -0.6474    1.8088 N   0  0  0  0  0  4  0  0  0  0  0  0
    2.6063    0.2527    2.5581 O   0  0  0  0  0  1  0  0  0  0  0  0
    2.5934   -1.8225    1.8311 O   0  0  0  0  0  0  0  0  0  0  0  0
    1.2400    1.1191    0.5347 C   0  0  0  0  0  0  0  0  0  0  0  0
   -1.3267    1.8415    1.1875 H   0  0  0  0  0  0  0  0  0  0  0  0
   -2.0317    1.5063   -0.4055 H   0  0  0  0  0  0  0  0  0  0  0  0
   -1.3515   -2.1652   -0.2162 H   0  0  0  0  0  0  0  0  0  0  0  0
   -2.0466   -0.9015   -1.2491 H   0  0  0  0  0  0  0  0  0  0  0  0
    2.1738   -1.0771   -0.8223 H   0  0  0  0  0  0  0  0  0  0  0  0
    1.1847   -2.2708    0.0403 H   0  0  0  0  0  0  0  0  0  0  0  0
    2.1887    1.3307    0.0213 H   0  0  0  0  0  0  0  0  0  0  0  0
    1.2095    1.7360    1.4440 H   0  0  0  0  0  0  0  0  0  0  0  0
  1  2  1  0
  2  3  2  0
  2  4  1  0
  4  5  1  0
  5  6  1  0
  6  7  1  0
  7  8  1  0
  7  9  2  0
  6 10  1  0
 10 11  1  0
 11 12  1  0
 12 13  1  0
 12 14  2  0
 11 15  1  0
 15 16  1  0
 16 17  1  0
 17 18  1  0
 17 19  2  0
 16 20  1  0
 20  4  1  0
  5 21  1  0
  5 22  1  0
 10 23  1  0
 10 24  1  0
 15 25  1  0
 15 26  1  0
 20 27  1  0
 20 28  1  0
M  CHG  8   1  -1   2   1   7   1   8  -1  12   1  13  -1  17   1  18  -1
M  END
$$$$
