
     RDKit          3D

 24 24  0  0  0  0  0  0  0  0999 V2000
   -0.5622   -1.3404   -0.0253 C   0  0  0  0  0  0  0  0  0  0  0  0
   -1.3783   -0.1840   -0.1315 C   0  0  0  0  0  0  0  0  0  0  0  0
   -0.8357    1.1107   -0.1332 C   0  0  0  0  0  0  0  0  0  0  0  0
    0.5401    1.2903    0.0136 C   0  0  0  0  0  0  0  0  0  0  0  0
    1.3717    0.1799    0.1629 C   0  0  0  0  0  0  0  0  0  0  0  0
    0.8255   -1.1134    0.1541 C   0  0  0  0  0  0  0  0  0  0  0  0
    1.7248   -2.2513    0.2131 N   0  0  0  0  0  4  0  0  0  0  0  0
    2.5323   -2.3530   -0.7155 O   0  0  0  0  0  0  0  0  0  0  0  0
    1.5836   -3.0384    1.1529 O   0  0  0  0  0  1  0  0  0  0  0  0
    2.7974    0.3605    0.3178 N   0  0  0  0  0  4  0  0  0  0  0  0
    3.2876   -0.0370    1.3764 O   0  0  0  0  0  0  0  0  0  0  0  0
    3.3861    0.8952   -0.6239 O   0  0  0  0  0  1  0  0  0  0  0  0
    1.1022    2.6210    0.0102 N   0  0  0  0  0  4  0  0  0  0  0  0
    0.9758    3.2637   -1.0337 O   0  0  0  0  0  0  0  0  0  0  0  0
    1.6552    2.9831    1.0503 O   0  0  0  0  0  1  0  0  0  0  0  0
   -1.7001    2.2580   -0.2940 N   0  0  0  0  0  4  0  0  0  0  0  0
   -2.3234    2.3258   -1.3557 O   0  0  0  0  0  0  0  0  0  0  0  0
   -1.7237    3.0624    0.6395 O   0  0  0  0  0  1  0  0  0  0  0  0
   -2.8225   -0.3470   -0.1827 N   0  0  0  0  0  4  0  0  0  0  0  0
   -3.2711   -1.0820   -1.0700 O   0  0  0  0  0  0  0  0  0  0  0  0
   -3.4757    0.2409    0.6843 O   0  0  0  0  0  1  0  0  0  0  0  0
   -1.1298   -2.6154    0.0958 N   0  0  0  0  0  0  0  0  0  0  0  0
   -2.0265   -2.7857   -0.3713 H   0  0  0  0  0  0  0  0  0  0  0  0
   -0.5333   -3.4440    0.0661 H   0  0  0  0  0  0  0  0  0  0  0  0
  1  2  2  0
  2  3  1  0
  3  4  2  0
  4  5  1  0
  5  6  2  0
  6  7  1  0
  7  8  2  0
  7  9  1  0
  5 10  1  0
 10 11  2  0
 10 12  1  0
  4 13  1  0
 13 14  2  0
 13 15  1  0
  3 16  1  0
 16 17  2  0
 16 18  1  0
  2 19  1  0
 19 20  2  0
 19 21  1  0
  1 22  1  0
  6  1  1  0
 22 23  1  0
 22 24  1  0
M  CHG  8   7   1   9  -1  10   1  12  -1  13   1  15  -1  16   1  18  -1
M  CHG  2  19   1  21  -1
M  END
$$$$
