
     RDKit          3D

 24 24  0  0  0  0  0  0  0  0999 V2000
    0.7517    1.1707   -0.3691 C   0  0  0  0  0  0  0  0  0  0  0  0
   -0.6680    1.1516   -0.4105 C   0  0  0  0  0  0  0  0  0  0  0  0
   -1.4422    0.0414    0.0130 C   0  0  0  0  0  0  0  0  0  0  0  0
   -0.7228   -1.1237    0.3884 C   0  0  0  0  0  0  0  0  0  0  0  0
    0.6910   -1.2223    0.3440 C   0  0  0  0  0  0  0  0  0  0  0  0
    1.3932   -0.0439   -0.0129 C   0  0  0  0  0  0  0  0  0  0  0  0
    2.8570   -0.0821   -0.0141 N   0  0  0  0  0  4  0  0  0  0  0  0
    3.4038   -1.0832   -0.5017 O   0  0  0  0  0  0  0  0  0  0  0  0
    3.4552    0.8892    0.4735 O   0  0  0  0  0  1  0  0  0  0  0  0
    1.3673   -2.3552    0.8628 N   0  0  0  0  0  0  0  0  0  0  0  0
   -1.4852   -2.2954    0.8232 N   0  0  0  0  0  4  0  0  0  0  0  0
   -2.4130   -2.1082    1.6254 O   0  0  0  0  0  0  0  0  0  0  0  0
   -1.1495   -3.3989    0.3663 O   0  0  0  0  0  1  0  0  0  0  0  0
   -2.8442    0.0097   -0.1102 N   0  0  0  0  0  0  0  0  0  0  0  0
   -1.3592    2.3776   -0.8188 N   0  0  0  0  0  4  0  0  0  0  0  0
   -2.3296    2.2750   -1.5812 O   0  0  0  0  0  0  0  0  0  0  0  0
   -0.9377    3.4475   -0.3520 O   0  0  0  0  0  1  0  0  0  0  0  0
    1.4892    2.2622   -0.8956 N   0  0  0  0  0  0  0  0  0  0  0  0
    0.8479   -3.2357    0.7702 H   0  0  0  0  0  0  0  0  0  0  0  0
    2.3153   -2.4872    0.4918 H   0  0  0  0  0  0  0  0  0  0  0  0
   -3.3509   -0.5846    0.5522 H   0  0  0  0  0  0  0  0  0  0  0  0
   -3.3364    0.8821   -0.3074 H   0  0  0  0  0  0  0  0  0  0  0  0
    1.0218    3.1715   -0.8060 H   0  0  0  0  0  0  0  0  0  0  0  0
    2.4455    2.3417   -0.5312 H   0  0  0  0  0  0  0  0  0  0  0  0
  1  2  2  0
  2  3  1  0
  3  4  2  0
  4  5  1  0
  5  6  2  0
  6  7  1  0
  7  8  2  0
  7  9  1  0
  5 10  1  0
  4 11  1  0
 11 12  2  0
 11 13  1  0
  3 14  1  0
  2 15  1  0
 15 16  2  0
 15 17  1  0
  1 18  1  0
  6  1  1  0
 10 19  1  0
 10 20  1  0
 14 21  1  0
 14 22  1  0
 18 23  1  0
 18 24  1  0
M  CHG  6   7   1   9  -1  11   1  13  -1  15   1  17  -1
M  END
$$$$
