
     RDKit          3D

 34 35  0  0  0  0  0  0  0  0999 V2000
    5.6012   -0.2543   -1.2967 O   0  0  0  0  0  1  0  0  0  0  0  0
    5.0744   -0.1140   -0.1861 N   0  0  0  0  0  4  0  0  0  0  0  0
    5.6868    0.0006    0.8827 O   0  0  0  0  0  0  0  0  0  0  0  0
    3.6057   -0.0811   -0.1322 C   0  0  0  0  0  0  0  0  0  0  0  0
    2.9571   -0.0901    1.1048 C   0  0  0  0  0  0  0  0  0  0  0  0
    1.5492   -0.0583    1.1513 C   0  0  0  0  0  0  0  0  0  0  0  0
    0.9414   -0.0750    2.4919 N   0  0  0  0  0  4  0  0  0  0  0  0
   -0.1276    0.5278    2.6497 O   0  0  0  0  0  1  0  0  0  0  0  0
    1.5315   -0.7129    3.3706 O   0  0  0  0  0  0  0  0  0  0  0  0
    0.7486   -0.0169   -0.0275 C   0  0  0  0  0  0  0  0  0  0  0  0
   -0.7486    0.0168    0.0274 C   0  0  0  0  0  0  0  0  0  0  0  0
   -1.5266   -1.1631    0.2137 C   0  0  0  0  0  0  0  0  0  0  0  0
   -0.8942   -2.4834    0.3673 N   0  0  0  0  0  4  0  0  0  0  0  0
    0.1674   -2.6895   -0.2340 O   0  0  0  0  0  1  0  0  0  0  0  0
   -1.4574   -3.2954    1.1094 O   0  0  0  0  0  0  0  0  0  0  0  0
   -2.9345   -1.1365    0.2660 C   0  0  0  0  0  0  0  0  0  0  0  0
   -3.6057    0.0812    0.1322 C   0  0  0  0  0  0  0  0  0  0  0  0
   -5.0744    0.1143    0.1861 N   0  0  0  0  0  4  0  0  0  0  0  0
   -5.6191    1.2247    0.2122 O   0  0  0  0  0  1  0  0  0  0  0  0
   -5.6689   -0.9706    0.2017 O   0  0  0  0  0  0  0  0  0  0  0  0
   -2.8920    1.2676   -0.0523 C   0  0  0  0  0  0  0  0  0  0  0  0
   -1.4843    1.2308   -0.1033 C   0  0  0  0  0  0  0  0  0  0  0  0
   -0.8061    2.5216   -0.3049 N   0  0  0  0  0  4  0  0  0  0  0  0
   -1.3850    3.3594   -1.0051 O   0  0  0  0  0  1  0  0  0  0  0  0
    0.3049    2.6787    0.2166 O   0  0  0  0  0  0  0  0  0  0  0  0
    1.4618   -0.0095   -1.2618 C   0  0  0  0  0  0  0  0  0  0  0  0
    0.7589    0.0366   -2.5542 N   0  0  0  0  0  4  0  0  0  0  0  0
   -0.3447   -0.5175   -2.6324 O   0  0  0  0  0  1  0  0  0  0  0  0
    1.3110    0.6490   -3.4748 O   0  0  0  0  0  0  0  0  0  0  0  0
    2.8693   -0.0410   -1.3185 C   0  0  0  0  0  0  0  0  0  0  0  0
    3.5369   -0.1202    2.0290 H   0  0  0  0  0  0  0  0  0  0  0  0
   -3.4966   -2.0610    0.4089 H   0  0  0  0  0  0  0  0  0  0  0  0
   -3.4209    2.2167   -0.1552 H   0  0  0  0  0  0  0  0  0  0  0  0
    3.3807   -0.0354   -2.2827 H   0  0  0  0  0  0  0  0  0  0  0  0
  1  2  1  0
  2  3  2  0
  2  4  1  0
  4  5  2  0
  5  6  1  0
  6  7  1  0
  7  8  1  0
  7  9  2  0
  6 10  2  0
 10 11  1  0
 11 12  2  0
 12 13  1  0
 13 14  1  0
 13 15  2  0
 12 16  1  0
 16 17  2  0
 17 18  1  0
 18 19  1  0
 18 20  2  0
 17 21  1  0
 21 22  2  0
 22 23  1  0
 23 24  1  0
 23 25  2  0
 10 26  1  0
 26 27  1  0
 27 28  1  0
 27 29  2  0
 26 30  2  0
 22 11  1  0
 30  4  1  0
  5 31  1  0
 16 32  1  0
 21 33  1  0
 30 34  1  0
M  CHG  8   1  -1   2   1   7   1   8  -1  13   1  14  -1  18   1  19  -1
M  CHG  4  23   1  24  -1  27   1  28  -1
M  END
$$$$
