
     RDKit          3D

 42 43  0  0  0  0  0  0  0  0999 V2000
    5.0170   -0.7034    0.2200 N   0  0  0  0  0  0  0  0  0  0  0  0
    3.6435   -0.4488    0.0297 C   0  0  0  0  0  0  0  0  0  0  0  0
    2.7907   -1.4085   -0.5633 C   0  0  0  0  0  0  0  0  0  0  0  0
    3.3698   -2.6599   -1.0328 N   0  0  0  0  0  4  0  0  0  0  0  0
    2.8703   -3.6986   -0.5866 O   0  0  0  0  0  1  0  0  0  0  0  0
    4.3303   -2.5819   -1.8082 O   0  0  0  0  0  0  0  0  0  0  0  0
    1.3919   -1.2305   -0.6328 C   0  0  0  0  0  0  0  0  0  0  0  0
    0.6033   -2.1781   -1.4178 N   0  0  0  0  0  4  0  0  0  0  0  0
   -0.4348   -2.6033   -0.9003 O   0  0  0  0  0  1  0  0  0  0  0  0
    0.9943   -2.4150   -2.5628 O   0  0  0  0  0  0  0  0  0  0  0  0
    0.7478   -0.1044   -0.0453 C   0  0  0  0  0  0  0  0  0  0  0  0
   -0.7529    0.0659   -0.0480 C   0  0  0  0  0  0  0  0  0  0  0  0
   -1.4304    0.8187   -1.0436 C   0  0  0  0  0  0  0  0  0  0  0  0
   -0.6495    1.5037   -2.0650 N   0  0  0  0  0  4  0  0  0  0  0  0
   -0.8032    2.7232   -2.1502 O   0  0  0  0  0  1  0  0  0  0  0  0
    0.1784    0.8244   -2.6801 O   0  0  0  0  0  0  0  0  0  0  0  0
   -2.8305    0.9871   -1.0312 C   0  0  0  0  0  0  0  0  0  0  0  0
   -3.4729    1.6431   -2.1615 N   0  0  0  0  0  4  0  0  0  0  0  0
   -4.2448    2.5760   -1.9103 O   0  0  0  0  0  1  0  0  0  0  0  0
   -3.2027    1.1963   -3.2817 O   0  0  0  0  0  0  0  0  0  0  0  0
   -3.6395    0.4825    0.0125 C   0  0  0  0  0  0  0  0  0  0  0  0
   -5.0369    0.5683   -0.0516 N   0  0  0  0  0  0  0  0  0  0  0  0
   -2.9753   -0.2772    1.0034 C   0  0  0  0  0  0  0  0  0  0  0  0
   -3.7292   -0.7063    2.1735 N   0  0  0  0  0  4  0  0  0  0  0  0
   -4.7330   -1.4018    1.9871 O   0  0  0  0  0  1  0  0  0  0  0  0
   -3.3264   -0.2847    3.2636 O   0  0  0  0  0  0  0  0  0  0  0  0
   -1.5797   -0.4969    0.9724 C   0  0  0  0  0  0  0  0  0  0  0  0
   -0.9861   -1.3864    1.9762 N   0  0  0  0  0  4  0  0  0  0  0  0
    0.0840   -1.0313    2.4844 O   0  0  0  0  0  1  0  0  0  0  0  0
   -1.5574   -2.4602    2.1797 O   0  0  0  0  0  0  0  0  0  0  0  0
    1.6095    0.8442    0.5773 C   0  0  0  0  0  0  0  0  0  0  0  0
    1.0493    2.1007    1.0698 N   0  0  0  0  0  4  0  0  0  0  0  0
    1.5483    3.1339    0.6180 O   0  0  0  0  0  1  0  0  0  0  0  0
    0.0524    2.0327    1.7964 O   0  0  0  0  0  0  0  0  0  0  0  0
    3.0070    0.6568    0.6389 C   0  0  0  0  0  0  0  0  0  0  0  0
    3.8140    1.5874    1.4170 N   0  0  0  0  0  4  0  0  0  0  0  0
    4.8163    2.0599    0.8671 O   0  0  0  0  0  1  0  0  0  0  0  0
    3.4422    1.8081    2.5745 O   0  0  0  0  0  0  0  0  0  0  0  0
    5.6088    0.1241    0.3587 H   0  0  0  0  0  0  0  0  0  0  0  0
    5.4578   -1.3145   -0.4777 H   0  0  0  0  0  0  0  0  0  0  0  0
   -5.4449    1.3835   -0.5198 H   0  0  0  0  0  0  0  0  0  0  0  0
   -5.5967    0.2712    0.7505 H   0  0  0  0  0  0  0  0  0  0  0  0
  1  2  1  0
  2  3  2  0
  3  4  1  0
  4  5  1  0
  4  6  2  0
  3  7  1  0
  7  8  1  0
  8  9  1  0
  8 10  2  0
  7 11  2  0
 11 12  1  0
 12 13  2  0
 13 14  1  0
 14 15  1  0
 14 16  2  0
 13 17  1  0
 17 18  1  0
 18 19  1  0
 18 20  2  0
 17 21  2  0
 21 22  1  0
 21 23  1  0
 23 24  1  0
 24 25  1  0
 24 26  2  0
 23 27  2  0
 27 28  1  0
 28 29  1  0
 28 30  2  0
 11 31  1  0
 31 32  1  0
 32 33  1  0
 32 34  2  0
 31 35  2  0
 35 36  1  0
 36 37  1  0
 36 38  2  0
 27 12  1  0
 35  2  1  0
  1 39  1  0
  1 40  1  0
 22 41  1  0
 22 42  1  0
M  CHG  8   4   1   5  -1   8   1   9  -1  14   1  15  -1  18   1  19  -1
M  CHG  8  24   1  25  -1  28   1  29  -1  32   1  33  -1  36   1  37  -1
M  END
$$$$
