
     RDKit          3D

 22 23  0  0  0  0  0  0  0  0999 V2000
    2.6571   -0.6782    0.7052 N   0  0  0  0  0  0  0  0  0  0  0  0
    1.3901   -0.2287    0.3454 C   0  0  0  0  0  0  0  0  0  0  0  0
    0.2408   -1.0591    0.1647 C   0  0  0  0  0  0  0  0  0  0  0  0
    0.4070   -2.4836    0.3986 N   0  0  0  0  0  4  0  0  0  0  0  0
    1.2275   -3.0764   -0.3099 O   0  0  0  0  0  1  0  0  0  0  0  0
   -0.2585   -2.9685    1.3186 O   0  0  0  0  0  0  0  0  0  0  0  0
   -1.0537   -0.5784   -0.1859 C   0  0  0  0  0  0  0  0  0  0  0  0
   -2.1363   -1.5128   -0.3818 N   0  0  0  0  0  4  0  0  0  0  0  0
   -3.1100   -1.3918    0.3646 O   0  0  0  0  0  1  0  0  0  0  0  0
   -1.9876   -2.3427   -1.2820 O   0  0  0  0  0  0  0  0  0  0  0  0
   -1.3110    0.7839   -0.3697 C   0  0  0  0  0  0  0  0  0  0  0  0
   -2.5748    1.3105   -0.7761 N   0  0  0  0  0  4  0  0  0  0  0  0
   -3.1709    2.0273    0.0318 O   0  0  0  0  0  1  0  0  0  0  0  0
   -2.9656    0.9764   -1.8988 O   0  0  0  0  0  0  0  0  0  0  0  0
   -0.2250    1.6616   -0.2156 C   0  0  0  0  0  0  0  0  0  0  0  0
   -0.1493    2.9894   -0.3593 N   0  0  0  0  0  0  0  0  0  0  0  0
    1.1565    3.3644   -0.0913 O   0  0  0  0  0  0  0  0  0  0  0  0
    1.9136    2.1887    0.2217 N   0  0  0  0  0  4  0  0  0  0  0  0
    3.1210    2.3731    0.4880 O   0  0  0  0  0  1  0  0  0  0  0  0
    1.0876    1.1313    0.1392 C   0  0  0  0  0  0  0  0  0  0  0  0
    2.7087   -1.1043    1.6335 H   0  0  0  0  0  0  0  0  0  0  0  0
    3.0330   -1.3822    0.0593 H   0  0  0  0  0  0  0  0  0  0  0  0
  1  2  1  0
  2  3  2  0
  3  4  1  0
  4  5  1  0
  4  6  2  0
  3  7  1  0
  7  8  1  0
  8  9  1  0
  8 10  2  0
  7 11  2  0
 11 12  1  0
 12 13  1  0
 12 14  2  0
 11 15  1  0
 15 16  2  0
 16 17  1  0
 17 18  1  0
 18 19  1  0
 18 20  2  0
 20  2  1  0
 20 15  1  0
  1 21  1  0
  1 22  1  0
M  CHG  8   4   1   5  -1   8   1   9  -1  12   1  13  -1  18   1  19  -1
M  END
$$$$
