
     RDKit          3D

 21 21  0  0  0  0  0  0  0  0999 V2000
   -2.1992    1.0792    0.3673 C   0  0  0  0  0  0  0  0  0  0  0  0
   -0.8601    0.4226    0.1470 C   0  0  0  0  0  0  0  0  0  0  0  0
   -0.6981   -0.9780    0.1991 C   0  0  0  0  0  0  0  0  0  0  0  0
    0.5493   -1.6030    0.0303 C   0  0  0  0  0  0  0  0  0  0  0  0
    1.6752   -0.8129   -0.2229 C   0  0  0  0  0  0  0  0  0  0  0  0
    1.5611    0.5777   -0.3186 C   0  0  0  0  0  0  0  0  0  0  0  0
    0.2993    1.1717   -0.1449 C   0  0  0  0  0  0  0  0  0  0  0  0
    0.2351    2.6213   -0.2914 N   0  0  0  0  0  4  0  0  0  0  0  0
   -0.5444    3.0672   -1.1410 O   0  0  0  0  0  0  0  0  0  0  0  0
    0.9807    3.2877    0.4359 O   0  0  0  0  0  1  0  0  0  0  0  0
    2.9861   -1.4506   -0.4071 N   0  0  0  0  0  4  0  0  0  0  0  0
    3.9525   -0.7132   -0.6379 O   0  0  0  0  0  0  0  0  0  0  0  0
    3.0378   -2.6841   -0.3235 O   0  0  0  0  0  1  0  0  0  0  0  0
   -1.8416   -1.8545    0.4247 N   0  0  0  0  0  4  0  0  0  0  0  0
   -2.7858   -1.7635   -0.3682 O   0  0  0  0  0  0  0  0  0  0  0  0
   -1.7662   -2.6323    1.3830 O   0  0  0  0  0  1  0  0  0  0  0  0
   -2.8165    0.5093    1.0691 H   0  0  0  0  0  0  0  0  0  0  0  0
   -2.0922    2.0704    0.8194 H   0  0  0  0  0  0  0  0  0  0  0  0
   -2.7329    1.1748   -0.5831 H   0  0  0  0  0  0  0  0  0  0  0  0
    0.6279   -2.6889    0.0924 H   0  0  0  0  0  0  0  0  0  0  0  0
    2.4320    1.1992   -0.5297 H   0  0  0  0  0  0  0  0  0  0  0  0
  1  2  1  0
  2  3  2  0
  3  4  1  0
  4  5  2  0
  5  6  1  0
  6  7  2  0
  7  8  1  0
  8  9  2  0
  8 10  1  0
  5 11  1  0
 11 12  2  0
 11 13  1  0
  3 14  1  0
 14 15  2  0
 14 16  1  0
  7  2  1  0
  1 17  1  0
  1 18  1  0
  1 19  1  0
  4 20  1  0
  6 21  1  0
M  CHG  6   8   1  10  -1  11   1  13  -1  14   1  16  -1
M  END
$$$$
