
     RDKit          3D

 21 21  0  0  0  0  0  0  0  0999 V2000
    2.8223   -0.3944   -1.3118 C   0  0  0  0  0  0  0  0  0  0  0  0
    1.4596   -0.1886   -0.7127 C   0  0  0  0  0  0  0  0  0  0  0  0
    0.6805    0.9163   -1.0868 C   0  0  0  0  0  0  0  0  0  0  0  0
   -0.6025    1.0881   -0.5400 C   0  0  0  0  0  0  0  0  0  0  0  0
   -1.3332    2.2887   -0.8971 N   0  0  0  0  0  4  0  0  0  0  0  0
   -1.4530    2.5336   -2.1025 O   0  0  0  0  0  1  0  0  0  0  0  0
   -1.7326    2.9940    0.0352 O   0  0  0  0  0  0  0  0  0  0  0  0
   -1.1282    0.1593    0.3560 C   0  0  0  0  0  0  0  0  0  0  0  0
   -2.4485    0.3394    0.9060 N   0  0  0  0  0  4  0  0  0  0  0  0
   -2.5255    0.4483    2.1338 O   0  0  0  0  0  1  0  0  0  0  0  0
   -3.3839    0.3683    0.1003 O   0  0  0  0  0  0  0  0  0  0  0  0
   -0.3605   -0.9486    0.7094 C   0  0  0  0  0  0  0  0  0  0  0  0
   -0.8853   -1.9834    1.5792 N   0  0  0  0  0  4  0  0  0  0  0  0
   -0.1822   -2.3180    2.5389 O   0  0  0  0  0  1  0  0  0  0  0  0
   -1.9702   -2.4805    1.2599 O   0  0  0  0  0  0  0  0  0  0  0  0
    0.9301   -1.1289    0.1835 C   0  0  0  0  0  0  0  0  0  0  0  0
    3.4787   -0.9250   -0.6142 H   0  0  0  0  0  0  0  0  0  0  0  0
    3.2974    0.5658   -1.5387 H   0  0  0  0  0  0  0  0  0  0  0  0
    2.7402   -0.9766   -2.2346 H   0  0  0  0  0  0  0  0  0  0  0  0
    1.0787    1.6476   -1.7919 H   0  0  0  0  0  0  0  0  0  0  0  0
    1.5181   -2.0052    0.4611 H   0  0  0  0  0  0  0  0  0  0  0  0
  1  2  1  0
  2  3  2  0
  3  4  1  0
  4  5  1  0
  5  6  1  0
  5  7  2  0
  4  8  2  0
  8  9  1  0
  9 10  1  0
  9 11  2  0
  8 12  1  0
 12 13  1  0
 13 14  1  0
 13 15  2  0
 12 16  2  0
 16  2  1  0
  1 17  1  0
  1 18  1  0
  1 19  1  0
  3 20  1  0
 16 21  1  0
M  CHG  6   5   1   6  -1   9   1  10  -1  13   1  14  -1
M  END
$$$$
