
     RDKit          3D

 20 20  0  0  0  0  0  0  0  0999 V2000
    1.1969    0.9794    0.4974 C   0  0  0  0  0  0  0  0  0  0  0  0
    1.6681   -0.3372    0.4948 C   0  0  0  0  0  0  0  0  0  0  0  0
    0.8010   -1.3973    0.2127 C   0  0  0  0  0  0  0  0  0  0  0  0
   -0.5466   -1.1143   -0.0771 C   0  0  0  0  0  0  0  0  0  0  0  0
   -1.0702    0.1915   -0.1100 C   0  0  0  0  0  0  0  0  0  0  0  0
   -0.1582    1.2168    0.2022 C   0  0  0  0  0  0  0  0  0  0  0  0
   -0.6120    2.5932    0.2557 N   0  0  0  0  0  4  0  0  0  0  0  0
   -0.4593    3.1871    1.3293 O   0  0  0  0  0  0  0  0  0  0  0  0
   -1.0720    3.0732   -0.7862 O   0  0  0  0  0  1  0  0  0  0  0  0
   -2.4444    0.4443   -0.3095 N   0  0  0  0  0  0  0  0  0  0  0  0
   -2.7465    0.6385   -1.5105 N   0  0  0  0  0  4  0  0  0  0  0  0
   -3.0122    0.8138   -2.6043 N   0  0  0  0  0  2  0  0  0  0  0  0
   -1.4183   -2.2467   -0.3241 N   0  0  0  0  0  4  0  0  0  0  0  0
   -1.5047   -3.0884    0.5774 O   0  0  0  0  0  0  0  0  0  0  0  0
   -1.9674   -2.3013   -1.4300 O   0  0  0  0  0  1  0  0  0  0  0  0
    3.0805   -0.6088    0.7983 N   0  0  0  0  0  4  0  0  0  0  0  0
    3.4490   -1.7894    0.7835 O   0  0  0  0  0  0  0  0  0  0  0  0
    3.8073    0.3620    1.0414 O   0  0  0  0  0  1  0  0  0  0  0  0
    1.8580    1.8142    0.7339 H   0  0  0  0  0  0  0  0  0  0  0  0
    1.1509   -2.4304    0.2253 H   0  0  0  0  0  0  0  0  0  0  0  0
  1  2  2  0
  2  3  1  0
  3  4  2  0
  4  5  1  0
  5  6  2  0
  6  7  1  0
  7  8  2  0
  7  9  1  0
  5 10  1  0
 10 11  2  0
 11 12  2  0
  4 13  1  0
 13 14  2  0
 13 15  1  0
  2 16  1  0
 16 17  2  0
 16 18  1  0
  6  1  1  0
  1 19  1  0
  3 20  1  0
M  CHG  8   7   1   9  -1  11   1  12  -1  13   1  15  -1  16   1  18  -1
M  END
$$$$
