
     RDKit          3D

 24 24  0  0  0  0  0  0  0  0999 V2000
   -1.2067    3.7127    1.8986 N   0  0  0  0  0  2  0  0  0  0  0  0
   -1.0242    3.2463    0.8767 N   0  0  0  0  0  4  0  0  0  0  0  0
   -0.8019    2.7081   -0.2332 N   0  0  0  0  0  0  0  0  0  0  0  0
   -0.4021    1.3580   -0.1463 C   0  0  0  0  0  0  0  0  0  0  0  0
   -1.3303    0.3030   -0.2760 C   0  0  0  0  0  0  0  0  0  0  0  0
   -2.7195    0.6301   -0.5103 N   0  0  0  0  0  4  0  0  0  0  0  0
   -3.1705    0.3250   -1.6171 O   0  0  0  0  0  1  0  0  0  0  0  0
   -3.3226    1.1775    0.4160 O   0  0  0  0  0  0  0  0  0  0  0  0
   -0.9343   -1.0422   -0.2434 C   0  0  0  0  0  0  0  0  0  0  0  0
   -1.9205   -2.0878   -0.3920 N   0  0  0  0  0  4  0  0  0  0  0  0
   -1.7920   -2.8222   -1.3728 O   0  0  0  0  0  1  0  0  0  0  0  0
   -2.7928   -2.1431    0.4761 O   0  0  0  0  0  0  0  0  0  0  0  0
    0.4144   -1.3675   -0.0839 C   0  0  0  0  0  0  0  0  0  0  0  0
    0.8272   -2.7512   -0.0277 N   0  0  0  0  0  4  0  0  0  0  0  0
    1.5990   -3.1270   -0.9111 O   0  0  0  0  0  1  0  0  0  0  0  0
    0.3692   -3.4182    0.9013 O   0  0  0  0  0  0  0  0  0  0  0  0
    1.3623   -0.3484    0.0243 C   0  0  0  0  0  0  0  0  0  0  0  0
    2.7554   -0.6702    0.2262 N   0  0  0  0  0  4  0  0  0  0  0  0
    3.5333   -0.3284   -0.6649 O   0  0  0  0  0  1  0  0  0  0  0  0
    3.0295   -1.2504    1.2779 O   0  0  0  0  0  0  0  0  0  0  0  0
    0.9546    0.9915   -0.0217 C   0  0  0  0  0  0  0  0  0  0  0  0
    1.9431    2.0367    0.0993 N   0  0  0  0  0  4  0  0  0  0  0  0
    2.2333    2.6515   -0.9282 O   0  0  0  0  0  1  0  0  0  0  0  0
    2.3961    2.2164    1.2323 O   0  0  0  0  0  0  0  0  0  0  0  0
  1  2  2  0
  2  3  2  0
  3  4  1  0
  4  5  2  0
  5  6  1  0
  6  7  1  0
  6  8  2  0
  5  9  1  0
  9 10  1  0
 10 11  1  0
 10 12  2  0
  9 13  2  0
 13 14  1  0
 14 15  1  0
 14 16  2  0
 13 17  1  0
 17 18  1  0
 18 19  1  0
 18 20  2  0
 17 21  2  0
 21 22  1  0
 22 23  1  0
 22 24  2  0
 21  4  1  0
M  CHG  8   1  -1   2   1   6   1   7  -1  10   1  11  -1  14   1  15  -1
M  CHG  4  18   1  19  -1  22   1  23  -1
M  END
$$$$
