
     RDKit          3D

 25 25  0  0  0  0  0  0  0  0999 V2000
   -2.7600    0.5908   -0.3107 C   0  0  0  0  0  0  0  0  0  0  0  0
   -1.8008   -0.3567    0.2426 N   0  0  0  0  0  0  0  0  0  0  0  0
   -0.4215   -0.1479    0.0327 C   0  0  0  0  0  0  0  0  0  0  0  0
    0.3659   -1.1450   -0.5999 C   0  0  0  0  0  0  0  0  0  0  0  0
    1.7528   -1.0181   -0.8089 C   0  0  0  0  0  0  0  0  0  0  0  0
    2.3972    0.1478   -0.3907 C   0  0  0  0  0  0  0  0  0  0  0  0
    1.6734    1.1733    0.2225 C   0  0  0  0  0  0  0  0  0  0  0  0
    0.2898    1.0086    0.4258 C   0  0  0  0  0  0  0  0  0  0  0  0
   -0.3856    2.1086    1.0851 N   0  0  0  0  0  4  0  0  0  0  0  0
   -0.8804    1.8843    2.1934 O   0  0  0  0  0  0  0  0  0  0  0  0
   -0.4220    3.1801    0.4701 O   0  0  0  0  0  1  0  0  0  0  0  0
    3.8421    0.3031   -0.6077 N   0  0  0  0  0  4  0  0  0  0  0  0
    4.4149   -0.5660   -1.2760 O   0  0  0  0  0  0  0  0  0  0  0  0
    4.3878    1.2974   -0.1136 O   0  0  0  0  0  1  0  0  0  0  0  0
   -0.2603   -2.3581   -1.1171 N   0  0  0  0  0  4  0  0  0  0  0  0
    0.2769   -3.4337   -0.8285 O   0  0  0  0  0  0  0  0  0  0  0  0
   -1.2510   -2.2150   -1.8449 O   0  0  0  0  0  1  0  0  0  0  0  0
   -2.1196   -0.9197    1.4772 N   0  0  0  0  0  4  0  0  0  0  0  0
   -3.2864   -0.7973    1.8548 O   0  0  0  0  0  0  0  0  0  0  0  0
   -1.2150   -1.5214    2.0655 O   0  0  0  0  0  1  0  0  0  0  0  0
   -2.4010    0.9991   -1.2629 H   0  0  0  0  0  0  0  0  0  0  0  0
   -2.9609    1.4273    0.3670 H   0  0  0  0  0  0  0  0  0  0  0  0
   -3.7105    0.0892   -0.5272 H   0  0  0  0  0  0  0  0  0  0  0  0
    2.3073   -1.8208   -1.2970 H   0  0  0  0  0  0  0  0  0  0  0  0
    2.1670    2.0900    0.5484 H   0  0  0  0  0  0  0  0  0  0  0  0
  1  2  1  0
  2  3  1  0
  3  4  2  0
  4  5  1  0
  5  6  2  0
  6  7  1  0
  7  8  2  0
  8  9  1  0
  9 10  2  0
  9 11  1  0
  6 12  1  0
 12 13  2  0
 12 14  1  0
  4 15  1  0
 15 16  2  0
 15 17  1  0
  2 18  1  0
 18 19  2  0
 18 20  1  0
  8  3  1  0
  1 21  1  0
  1 22  1  0
  1 23  1  0
  5 24  1  0
  7 25  1  0
M  CHG  8   9   1  11  -1  12   1  14  -1  15   1  17  -1  18   1  20  -1
M  END
$$$$
