
     RDKit          3D

 30 30  0  0  0  0  0  0  0  0999 V2000
   -2.1510   -2.3310    0.8173 C   0  0  0  0  0  0  0  0  0  0  0  0
   -1.3539   -1.1262    0.3752 C   0  0  0  0  0  0  0  0  0  0  0  0
    0.0599   -1.1635    0.2738 C   0  0  0  0  0  0  0  0  0  0  0  0
    0.7502   -2.3816    0.6710 N   0  0  0  0  0  4  0  0  0  0  0  0
    0.8564   -3.2700   -0.1790 O   0  0  0  0  0  1  0  0  0  0  0  0
    1.1637   -2.4173    1.8355 O   0  0  0  0  0  0  0  0  0  0  0  0
    0.8662   -0.0562   -0.1186 C   0  0  0  0  0  0  0  0  0  0  0  0
    2.2671   -0.2228   -0.2179 N   0  0  0  0  0  0  0  0  0  0  0  0
    3.1412    0.5739    0.6377 C   0  0  0  0  0  0  0  0  0  0  0  0
    2.7271   -0.4670   -1.5162 N   0  0  0  0  0  4  0  0  0  0  0  0
    3.9333   -0.3103   -1.7095 O   0  0  0  0  0  1  0  0  0  0  0  0
    1.8874   -0.8425   -2.3404 O   0  0  0  0  0  0  0  0  0  0  0  0
    0.1692    1.1435   -0.3875 C   0  0  0  0  0  0  0  0  0  0  0  0
    0.9073    2.3425   -0.7125 N   0  0  0  0  0  4  0  0  0  0  0  0
    0.9567    3.2013    0.1728 O   0  0  0  0  0  1  0  0  0  0  0  0
    1.4656    2.3810   -1.8100 O   0  0  0  0  0  0  0  0  0  0  0  0
   -1.2254    1.2310   -0.2764 C   0  0  0  0  0  0  0  0  0  0  0  0
   -1.8890    2.4914   -0.5238 N   0  0  0  0  0  4  0  0  0  0  0  0
   -1.8038    2.9441   -1.6669 O   0  0  0  0  0  1  0  0  0  0  0  0
   -2.4663    3.0048    0.4373 O   0  0  0  0  0  0  0  0  0  0  0  0
   -1.9725    0.1115    0.1036 C   0  0  0  0  0  0  0  0  0  0  0  0
   -3.4156    0.2337    0.2129 N   0  0  0  0  0  4  0  0  0  0  0  0
   -4.0278    0.4377   -0.8386 O   0  0  0  0  0  1  0  0  0  0  0  0
   -3.9000    0.1034    1.3405 O   0  0  0  0  0  0  0  0  0  0  0  0
   -1.6748   -3.2714    0.5267 H   0  0  0  0  0  0  0  0  0  0  0  0
   -2.2706   -2.3187    1.9050 H   0  0  0  0  0  0  0  0  0  0  0  0
   -3.1397   -2.3532    0.3480 H   0  0  0  0  0  0  0  0  0  0  0  0
    2.6723    0.7559    1.6119 H   0  0  0  0  0  0  0  0  0  0  0  0
    3.3924    1.5418    0.1910 H   0  0  0  0  0  0  0  0  0  0  0  0
    4.0743    0.0343    0.8371 H   0  0  0  0  0  0  0  0  0  0  0  0
  1  2  1  0
  2  3  2  0
  3  4  1  0
  4  5  1  0
  4  6  2  0
  3  7  1  0
  7  8  1  0
  8  9  1  0
  8 10  1  0
 10 11  1  0
 10 12  2  0
  7 13  2  0
 13 14  1  0
 14 15  1  0
 14 16  2  0
 13 17  1  0
 17 18  1  0
 18 19  1  0
 18 20  2  0
 17 21  2  0
 21 22  1  0
 22 23  1  0
 22 24  2  0
 21  2  1  0
  1 25  1  0
  1 26  1  0
  1 27  1  0
  9 28  1  0
  9 29  1  0
  9 30  1  0
M  CHG  8   4   1   5  -1  10   1  11  -1  14   1  15  -1  18   1  19  -1
M  CHG  2  22   1  23  -1
M  END
$$$$
