
     RDKit          3D

 20 20  0  0  0  0  0  0  0  0999 V2000
    0.1443   -1.5552    0.0674 C   0  0  0  0  0  0  0  0  0  0  0  0
   -1.1312   -0.9783    0.0358 C   0  0  0  0  0  0  0  0  0  0  0  0
   -1.3219    0.4032   -0.0120 C   0  0  0  0  0  0  0  0  0  0  0  0
   -0.1805    1.2212   -0.0154 C   0  0  0  0  0  0  0  0  0  0  0  0
    1.1208    0.6817   -0.0220 C   0  0  0  0  0  0  0  0  0  0  0  0
    1.2700   -0.7173    0.0284 C   0  0  0  0  0  0  0  0  0  0  0  0
    2.6000   -1.3399    0.0317 N   0  0  0  0  0  4  0  0  0  0  0  0
    2.6612   -2.5722   -0.0505 O   0  0  0  0  0  0  0  0  0  0  0  0
    3.5798   -0.5848    0.1142 O   0  0  0  0  0  1  0  0  0  0  0  0
    2.1787    1.5452   -0.1203 O   0  0  0  0  0  0  0  0  0  0  0  0
   -0.3644    2.6631    0.0213 N   0  0  0  0  0  4  0  0  0  0  0  0
   -1.2113    3.1252   -0.7597 O   0  0  0  0  0  0  0  0  0  0  0  0
    0.2538    3.3101    0.8741 O   0  0  0  0  0  1  0  0  0  0  0  0
   -2.5984    0.8938   -0.0261 O   0  0  0  0  0  0  0  0  0  0  0  0
   -2.2736   -1.8694    0.0443 N   0  0  0  0  0  4  0  0  0  0  0  0
   -2.9255   -1.9580   -1.0029 O   0  0  0  0  0  0  0  0  0  0  0  0
   -2.4577   -2.5204    1.0803 O   0  0  0  0  0  1  0  0  0  0  0  0
    0.2447   -2.6403    0.1093 H   0  0  0  0  0  0  0  0  0  0  0  0
    3.0408    1.0864   -0.0087 H   0  0  0  0  0  0  0  0  0  0  0  0
   -2.6297    1.8061   -0.3892 H   0  0  0  0  0  0  0  0  0  0  0  0
  1  2  2  0
  2  3  1  0
  3  4  2  0
  4  5  1  0
  5  6  2  0
  6  7  1  0
  7  8  2  0
  7  9  1  0
  5 10  1  0
  4 11  1  0
 11 12  2  0
 11 13  1  0
  3 14  1  0
  2 15  1  0
 15 16  2  0
 15 17  1  0
  6  1  1  0
  1 18  1  0
 10 19  1  0
 14 20  1  0
M  CHG  6   7   1   9  -1  11   1  13  -1  15   1  17  -1
M  END
$$$$
