
     RDKit          3D

 22 22  0  0  0  0  0  0  0  0999 V2000
   -2.6295    0.6107   -0.2757 N   0  0  0  0  0  0  0  0  0  0  0  0
   -1.2801    0.2287   -0.2733 C   0  0  0  0  0  0  0  0  0  0  0  0
   -0.8643   -1.0057   -0.8360 C   0  0  0  0  0  0  0  0  0  0  0  0
   -1.8077   -1.8439   -1.5850 N   0  0  0  0  0  4  0  0  0  0  0  0
   -2.6719   -1.2700   -2.2622 O   0  0  0  0  0  1  0  0  0  0  0  0
   -1.6572   -3.0695   -1.5047 O   0  0  0  0  0  0  0  0  0  0  0  0
    0.4550   -1.4828   -0.7151 C   0  0  0  0  0  0  0  0  0  0  0  0
    1.3851   -0.7329    0.0109 C   0  0  0  0  0  0  0  0  0  0  0  0
    2.7207   -1.2773    0.1693 N   0  0  0  0  0  4  0  0  0  0  0  0
    3.1404   -1.3874    1.3247 O   0  0  0  0  0  1  0  0  0  0  0  0
    3.3027   -1.6277   -0.8618 O   0  0  0  0  0  0  0  0  0  0  0  0
    1.0169    0.4721    0.6023 C   0  0  0  0  0  0  0  0  0  0  0  0
    1.9944    1.2543    1.3218 N   0  0  0  0  0  4  0  0  0  0  0  0
    1.7664    1.4611    2.5162 O   0  0  0  0  0  1  0  0  0  0  0  0
    2.9660    1.6495    0.6715 O   0  0  0  0  0  0  0  0  0  0  0  0
   -0.3014    0.9331    0.4724 C   0  0  0  0  0  0  0  0  0  0  0  0
   -0.6397    2.2290    1.0252 N   0  0  0  0  0  4  0  0  0  0  0  0
   -1.4854    2.2620    1.9238 O   0  0  0  0  0  1  0  0  0  0  0  0
   -0.0716    3.2018    0.5173 O   0  0  0  0  0  0  0  0  0  0  0  0
   -3.2003    0.2637   -1.0547 H   0  0  0  0  0  0  0  0  0  0  0  0
   -2.8852    1.5643   -0.0207 H   0  0  0  0  0  0  0  0  0  0  0  0
    0.7469   -2.4331   -1.1664 H   0  0  0  0  0  0  0  0  0  0  0  0
  1  2  1  0
  2  3  2  0
  3  4  1  0
  4  5  1  0
  4  6  2  0
  3  7  1  0
  7  8  2  0
  8  9  1  0
  9 10  1  0
  9 11  2  0
  8 12  1  0
 12 13  1  0
 13 14  1  0
 13 15  2  0
 12 16  2  0
 16 17  1  0
 17 18  1  0
 17 19  2  0
 16  2  1  0
  1 20  1  0
  1 21  1  0
  7 22  1  0
M  CHG  8   4   1   5  -1   9   1  10  -1  13   1  14  -1  17   1  18  -1
M  END
$$$$
