
     RDKit          3D

 20 20  0  0  0  0  0  0  0  0999 V2000
    0.8898   -1.1804   -0.5989 C   0  0  0  0  0  0  0  0  0  0  0  0
    1.7056   -0.2775    0.0875 C   0  0  0  0  0  0  0  0  0  0  0  0
    1.1510    0.8399    0.7165 C   0  0  0  0  0  0  0  0  0  0  0  0
   -0.2392    1.0527    0.6417 C   0  0  0  0  0  0  0  0  0  0  0  0
   -1.1038    0.1952   -0.0806 C   0  0  0  0  0  0  0  0  0  0  0  0
   -0.4976   -0.9458   -0.6595 C   0  0  0  0  0  0  0  0  0  0  0  0
   -1.3071   -1.9363   -1.3740 N   0  0  0  0  0  4  0  0  0  0  0  0
   -0.9541   -3.1202   -1.2941 O   0  0  0  0  0  0  0  0  0  0  0  0
   -2.2753   -1.5221   -2.0280 O   0  0  0  0  0  1  0  0  0  0  0  0
   -2.5062    0.3272   -0.0048 N   0  0  0  0  0  0  0  0  0  0  0  0
   -0.7686    2.2284    1.3377 N   0  0  0  0  0  4  0  0  0  0  0  0
   -1.7123    2.8325    0.8073 O   0  0  0  0  0  0  0  0  0  0  0  0
   -0.2206    2.5524    2.3994 O   0  0  0  0  0  1  0  0  0  0  0  0
    3.1560   -0.5078    0.1531 N   0  0  0  0  0  4  0  0  0  0  0  0
    3.6016   -1.5093   -0.4206 O   0  0  0  0  0  0  0  0  0  0  0  0
    3.8381    0.3194    0.7705 O   0  0  0  0  0  1  0  0  0  0  0  0
    1.3173   -2.0625   -1.0771 H   0  0  0  0  0  0  0  0  0  0  0  0
    1.7829    1.5379    1.2672 H   0  0  0  0  0  0  0  0  0  0  0  0
   -3.0192   -0.1116   -0.7774 H   0  0  0  0  0  0  0  0  0  0  0  0
   -2.8382    1.2880    0.1338 H   0  0  0  0  0  0  0  0  0  0  0  0
  1  2  2  0
  2  3  1  0
  3  4  2  0
  4  5  1  0
  5  6  2  0
  6  7  1  0
  7  8  2  0
  7  9  1  0
  5 10  1  0
  4 11  1  0
 11 12  2  0
 11 13  1  0
  2 14  1  0
 14 15  2  0
 14 16  1  0
  6  1  1  0
  1 17  1  0
  3 18  1  0
 10 19  1  0
 10 20  1  0
M  CHG  6   7   1   9  -1  11   1  13  -1  14   1  16  -1
M  END
$$$$
