
     RDKit          3D

 21 21  0  0  0  0  0  0  0  0999 V2000
    0.2821   -1.6022    0.4052 C   0  0  0  0  0  0  0  0  0  0  0  0
   -0.9555   -1.0495    0.0428 C   0  0  0  0  0  0  0  0  0  0  0  0
   -1.1137    0.3298   -0.2462 C   0  0  0  0  0  0  0  0  0  0  0  0
    0.0685    1.1234   -0.2217 C   0  0  0  0  0  0  0  0  0  0  0  0
    1.3265    0.5873    0.1272 C   0  0  0  0  0  0  0  0  0  0  0  0
    1.4014   -0.7706    0.4393 C   0  0  0  0  0  0  0  0  0  0  0  0
    2.6718   -1.3670    0.7992 N   0  0  0  0  0  4  0  0  0  0  0  0
    2.7837   -1.7621    1.9667 O   0  0  0  0  0  0  0  0  0  0  0  0
    3.5109   -1.4930   -0.1006 O   0  0  0  0  0  1  0  0  0  0  0  0
    2.4748    1.3293    0.2020 O   0  0  0  0  0  0  0  0  0  0  0  0
   -0.0135    2.5534   -0.5290 N   0  0  0  0  0  4  0  0  0  0  0  0
    0.9954    3.0816   -1.0223 O   0  0  0  0  0  0  0  0  0  0  0  0
   -1.0609    3.1532   -0.2485 O   0  0  0  0  0  1  0  0  0  0  0  0
   -2.3243    0.8267   -0.7805 N   0  0  0  0  0  0  0  0  0  0  0  0
   -2.1012   -1.9630   -0.0083 N   0  0  0  0  0  4  0  0  0  0  0  0
   -3.2084   -1.5149    0.3229 O   0  0  0  0  0  0  0  0  0  0  0  0
   -1.8795   -3.1294   -0.3590 O   0  0  0  0  0  1  0  0  0  0  0  0
    0.3786   -2.6613    0.6446 H   0  0  0  0  0  0  0  0  0  0  0  0
    2.3929    2.1720   -0.2974 H   0  0  0  0  0  0  0  0  0  0  0  0
   -2.4649    1.8361   -0.6584 H   0  0  0  0  0  0  0  0  0  0  0  0
   -3.1646    0.3205   -0.4779 H   0  0  0  0  0  0  0  0  0  0  0  0
  1  2  2  0
  2  3  1  0
  3  4  2  0
  4  5  1  0
  5  6  2  0
  6  7  1  0
  7  8  2  0
  7  9  1  0
  5 10  1  0
  4 11  1  0
 11 12  2  0
 11 13  1  0
  3 14  1  0
  2 15  1  0
 15 16  2  0
 15 17  1  0
  6  1  1  0
  1 18  1  0
 10 19  1  0
 14 20  1  0
 14 21  1  0
M  CHG  6   7   1   9  -1  11   1  13  -1  15   1  17  -1
M  END
$$$$
