
     RDKit          3D

 19 19  0  0  0  0  0  0  0  0999 V2000
    0.7890   -1.3011    0.0450 C   0  0  0  0  0  0  0  0  0  0  0  0
    1.5919   -0.1634    0.1920 C   0  0  0  0  0  0  0  0  0  0  0  0
    1.0215    1.1154    0.1734 C   0  0  0  0  0  0  0  0  0  0  0  0
   -0.3684    1.2341   -0.0021 C   0  0  0  0  0  0  0  0  0  0  0  0
   -1.2104    0.1242   -0.1460 C   0  0  0  0  0  0  0  0  0  0  0  0
   -0.5980   -1.1350   -0.1144 C   0  0  0  0  0  0  0  0  0  0  0  0
   -1.4002   -2.3366   -0.2357 N   0  0  0  0  0  4  0  0  0  0  0  0
   -2.1895   -2.5693    0.6840 O   0  0  0  0  0  0  0  0  0  0  0  0
   -1.2000   -3.0345   -1.2343 O   0  0  0  0  0  1  0  0  0  0  0  0
   -2.6268    0.2695   -0.3168 C   0  0  0  0  0  0  0  0  0  0  0  0
   -3.7705    0.3869   -0.4548 N   0  0  0  0  0  0  0  0  0  0  0  0
   -0.9194    2.5746   -0.0440 N   0  0  0  0  0  4  0  0  0  0  0  0
   -0.8243    3.2422    0.9901 O   0  0  0  0  0  0  0  0  0  0  0  0
   -1.4070    2.9384   -1.1178 O   0  0  0  0  0  1  0  0  0  0  0  0
    3.0438   -0.3123    0.3671 N   0  0  0  0  0  4  0  0  0  0  0  0
    3.7224    0.7213    0.3896 O   0  0  0  0  0  0  0  0  0  0  0  0
    3.4875   -1.4611    0.4800 O   0  0  0  0  0  1  0  0  0  0  0  0
    1.2218   -2.3025    0.0576 H   0  0  0  0  0  0  0  0  0  0  0  0
    1.6366    2.0092    0.2871 H   0  0  0  0  0  0  0  0  0  0  0  0
  1  2  2  0
  2  3  1  0
  3  4  2  0
  4  5  1  0
  5  6  2  0
  6  7  1  0
  7  8  2  0
  7  9  1  0
  5 10  1  0
 10 11  3  0
  4 12  1  0
 12 13  2  0
 12 14  1  0
  2 15  1  0
 15 16  2  0
 15 17  1  0
  6  1  1  0
  1 18  1  0
  3 19  1  0
M  CHG  6   7   1   9  -1  12   1  14  -1  15   1  17  -1
M  END
$$$$
