
     RDKit          3D

 22 22  0  0  0  0  0  0  0  0999 V2000
    2.8829    0.2129    0.5827 C   0  0  0  0  0  0  0  0  0  0  0  0
    2.0564    0.3538   -0.5807 O   0  0  0  0  0  0  0  0  0  0  0  0
    0.7346    0.1473   -0.3107 C   0  0  0  0  0  0  0  0  0  0  0  0
    0.1488   -1.1120   -0.4778 C   0  0  0  0  0  0  0  0  0  0  0  0
   -1.2296   -1.3261   -0.3191 C   0  0  0  0  0  0  0  0  0  0  0  0
   -2.0476   -0.2363    0.0059 C   0  0  0  0  0  0  0  0  0  0  0  0
   -1.5018    1.0445    0.1611 C   0  0  0  0  0  0  0  0  0  0  0  0
   -0.1183    1.2137   -0.0066 C   0  0  0  0  0  0  0  0  0  0  0  0
    0.4128    2.5546    0.1262 N   0  0  0  0  0  4  0  0  0  0  0  0
    1.1753    2.7646    1.0771 O   0  0  0  0  0  0  0  0  0  0  0  0
    0.0165    3.3929   -0.6919 O   0  0  0  0  0  1  0  0  0  0  0  0
   -3.4931   -0.4374    0.1793 N   0  0  0  0  0  4  0  0  0  0  0  0
   -4.1761    0.5532    0.4666 O   0  0  0  0  0  0  0  0  0  0  0  0
   -3.9304   -1.5855    0.0343 O   0  0  0  0  0  1  0  0  0  0  0  0
    0.9645   -2.2503   -0.8473 N   0  0  0  0  0  4  0  0  0  0  0  0
    1.7956   -2.6381   -0.0174 O   0  0  0  0  0  0  0  0  0  0  0  0
    0.7247   -2.7742   -1.9414 O   0  0  0  0  0  1  0  0  0  0  0  0
    3.6195   -0.5726    0.3908 H   0  0  0  0  0  0  0  0  0  0  0  0
    3.4214    1.1519    0.7404 H   0  0  0  0  0  0  0  0  0  0  0  0
    2.3222   -0.0357    1.4916 H   0  0  0  0  0  0  0  0  0  0  0  0
   -1.6464   -2.3237   -0.4596 H   0  0  0  0  0  0  0  0  0  0  0  0
   -2.1317    1.9026    0.3966 H   0  0  0  0  0  0  0  0  0  0  0  0
  1  2  1  0
  2  3  1  0
  3  4  2  0
  4  5  1  0
  5  6  2  0
  6  7  1  0
  7  8  2  0
  8  9  1  0
  9 10  2  0
  9 11  1  0
  6 12  1  0
 12 13  2  0
 12 14  1  0
  4 15  1  0
 15 16  2  0
 15 17  1  0
  8  3  1  0
  1 18  1  0
  1 19  1  0
  1 20  1  0
  5 21  1  0
  7 22  1  0
M  CHG  6   9   1  11  -1  12   1  14  -1  15   1  17  -1
M  END
$$$$
