
     RDKit          3D

 24 24  0  0  0  0  0  0  0  0999 V2000
   -2.8630    0.8944   -0.8143 C   0  0  0  0  0  0  0  0  0  0  0  0
   -2.2355    0.6749    0.4548 O   0  0  0  0  0  0  0  0  0  0  0  0
   -0.9025    0.3971    0.3315 C   0  0  0  0  0  0  0  0  0  0  0  0
    0.0400    1.3816    0.6308 C   0  0  0  0  0  0  0  0  0  0  0  0
   -0.3886    2.7173    1.0016 N   0  0  0  0  0  4  0  0  0  0  0  0
   -0.0124    3.1372    2.1024 O   0  0  0  0  0  1  0  0  0  0  0  0
   -1.0430    3.3514    0.1647 O   0  0  0  0  0  0  0  0  0  0  0  0
    1.4132    1.1246    0.5901 C   0  0  0  0  0  0  0  0  0  0  0  0
    1.8540   -0.1587    0.2237 C   0  0  0  0  0  0  0  0  0  0  0  0
    3.3034   -0.3815    0.1889 N   0  0  0  0  0  4  0  0  0  0  0  0
    3.9951    0.2595    0.9906 O   0  0  0  0  0  1  0  0  0  0  0  0
    3.7426   -1.1733   -0.6577 O   0  0  0  0  0  0  0  0  0  0  0  0
    0.9527   -1.1953   -0.1185 C   0  0  0  0  0  0  0  0  0  0  0  0
    1.3917   -2.5193   -0.3340 N   0  0  0  0  0  0  0  0  0  0  0  0
   -0.4263   -0.8881    0.0177 C   0  0  0  0  0  0  0  0  0  0  0  0
   -1.3935   -1.9540   -0.1592 N   0  0  0  0  0  4  0  0  0  0  0  0
   -2.1098   -2.2458    0.8056 O   0  0  0  0  0  1  0  0  0  0  0  0
   -1.4172   -2.5006   -1.2718 O   0  0  0  0  0  0  0  0  0  0  0  0
   -3.1827   -0.0582   -1.2464 H   0  0  0  0  0  0  0  0  0  0  0  0
   -3.7532    1.5073   -0.6453 H   0  0  0  0  0  0  0  0  0  0  0  0
   -2.2097    1.4237   -1.5170 H   0  0  0  0  0  0  0  0  0  0  0  0
    2.1247    1.9113    0.8431 H   0  0  0  0  0  0  0  0  0  0  0  0
    0.7677   -3.1072   -0.8932 H   0  0  0  0  0  0  0  0  0  0  0  0
    2.3523   -2.5985   -0.6882 H   0  0  0  0  0  0  0  0  0  0  0  0
  1  2  1  0
  2  3  1  0
  3  4  2  0
  4  5  1  0
  5  6  1  0
  5  7  2  0
  4  8  1  0
  8  9  2  0
  9 10  1  0
 10 11  1  0
 10 12  2  0
  9 13  1  0
 13 14  1  0
 13 15  2  0
 15 16  1  0
 16 17  1  0
 16 18  2  0
 15  3  1  0
  1 19  1  0
  1 20  1  0
  1 21  1  0
  8 22  1  0
 14 23  1  0
 14 24  1  0
M  CHG  6   5   1   6  -1  10   1  11  -1  16   1  17  -1
M  END
$$$$
