
     RDKit          3D

 26 26  0  0  0  0  0  0  0  0999 V2000
    2.3848   -1.1568    2.1543 C   0  0  0  0  0  0  0  0  0  0  0  0
    1.2603   -0.2695    2.2289 O   0  0  0  0  0  0  0  0  0  0  0  0
    0.7648    0.0490    0.9964 C   0  0  0  0  0  0  0  0  0  0  0  0
    1.1312    1.2435    0.3656 C   0  0  0  0  0  0  0  0  0  0  0  0
    2.1164    2.1196    0.9702 N   0  0  0  0  0  4  0  0  0  0  0  0
    3.2506    1.6587    1.1447 O   0  0  0  0  0  1  0  0  0  0  0  0
    1.7554    3.2781    1.2090 O   0  0  0  0  0  0  0  0  0  0  0  0
    0.5719    1.6384   -0.8566 C   0  0  0  0  0  0  0  0  0  0  0  0
   -0.3910    0.8089   -1.4434 C   0  0  0  0  0  0  0  0  0  0  0  0
   -0.9193    1.1999   -2.7323 N   0  0  0  0  0  4  0  0  0  0  0  0
   -1.5966    2.2343   -2.7584 O   0  0  0  0  0  1  0  0  0  0  0  0
   -0.6258    0.4921   -3.7012 O   0  0  0  0  0  0  0  0  0  0  0  0
   -0.8327   -0.3657   -0.8270 C   0  0  0  0  0  0  0  0  0  0  0  0
   -1.7635   -1.1830   -1.4039 O   0  0  0  0  0  0  0  0  0  0  0  0
   -3.1019   -0.7340   -1.1579 C   0  0  0  0  0  0  0  0  0  0  0  0
   -0.2268   -0.7319    0.3843 C   0  0  0  0  0  0  0  0  0  0  0  0
   -0.6617   -1.9449    1.0332 N   0  0  0  0  0  4  0  0  0  0  0  0
    0.0567   -2.9422    0.8905 O   0  0  0  0  0  1  0  0  0  0  0  0
   -1.7160   -1.8861    1.6783 O   0  0  0  0  0  0  0  0  0  0  0  0
    2.0965   -2.1266    2.5696 H   0  0  0  0  0  0  0  0  0  0  0  0
    3.1853   -0.7446    2.7757 H   0  0  0  0  0  0  0  0  0  0  0  0
    2.7655   -1.2945    1.1354 H   0  0  0  0  0  0  0  0  0  0  0  0
    0.8812    2.5646   -1.3401 H   0  0  0  0  0  0  0  0  0  0  0  0
   -3.2340   -0.3604   -0.1365 H   0  0  0  0  0  0  0  0  0  0  0  0
   -3.7715   -1.5873   -1.2999 H   0  0  0  0  0  0  0  0  0  0  0  0
   -3.3795    0.0405   -1.8787 H   0  0  0  0  0  0  0  0  0  0  0  0
  1  2  1  0
  2  3  1  0
  3  4  2  0
  4  5  1  0
  5  6  1  0
  5  7  2  0
  4  8  1  0
  8  9  2  0
  9 10  1  0
 10 11  1  0
 10 12  2  0
  9 13  1  0
 13 14  1  0
 14 15  1  0
 13 16  2  0
 16 17  1  0
 17 18  1  0
 17 19  2  0
 16  3  1  0
  1 20  1  0
  1 21  1  0
  1 22  1  0
  8 23  1  0
 15 24  1  0
 15 25  1  0
 15 26  1  0
M  CHG  6   5   1   6  -1  10   1  11  -1  17   1  18  -1
M  END
$$$$
