
     RDKit          3D

 32 32  0  0  0  0  0  0  0  0999 V2000
   -0.0405    2.0811    1.1504 O   0  0  0  0  0  0  0  0  0  0  0  0
   -0.0492    1.0161    0.5527 C   0  0  0  0  0  0  0  0  0  0  0  0
    1.0512    0.3629    0.1072 O   0  0  0  0  0  0  0  0  0  0  0  0
    2.3036    1.0520    0.3542 C   0  0  0  0  0  0  0  0  0  0  0  0
    3.5015    0.3180   -0.2359 C   0  0  0  0  0  0  0  0  0  0  0  0
    4.7611    0.9330    0.2464 N   0  0  0  0  0  4  0  0  0  0  0  0
    5.7319    0.2128    0.5197 O   0  0  0  0  0  1  0  0  0  0  0  0
    4.7701    2.1697    0.3612 O   0  0  0  0  0  0  0  0  0  0  0  0
    3.5324    0.3941   -1.7148 N   0  0  0  0  0  4  0  0  0  0  0  0
    2.4487    0.5383   -2.3045 O   0  0  0  0  0  1  0  0  0  0  0  0
    4.6222    0.3320   -2.3030 O   0  0  0  0  0  0  0  0  0  0  0  0
    3.4905   -1.0991    0.1818 N   0  0  0  0  0  4  0  0  0  0  0  0
    3.5965   -1.9918   -0.6707 O   0  0  0  0  0  1  0  0  0  0  0  0
    3.3124   -1.3249    1.3912 O   0  0  0  0  0  0  0  0  0  0  0  0
   -1.3052    0.2863    0.2384 C   0  0  0  0  0  0  0  0  0  0  0  0
   -1.2851   -0.9098   -0.5033 C   0  0  0  0  0  0  0  0  0  0  0  0
   -2.4858   -1.5855   -0.7856 C   0  0  0  0  0  0  0  0  0  0  0  0
   -2.4507   -2.8360   -1.5579 N   0  0  0  0  0  4  0  0  0  0  0  0
   -3.5335   -3.3615   -1.8441 O   0  0  0  0  0  1  0  0  0  0  0  0
   -1.3392   -3.2809   -1.8709 O   0  0  0  0  0  0  0  0  0  0  0  0
   -3.7114   -1.0828   -0.3423 C   0  0  0  0  0  0  0  0  0  0  0  0
   -3.7094    0.1105    0.3861 C   0  0  0  0  0  0  0  0  0  0  0  0
   -4.9840    0.6276    0.8332 N   0  0  0  0  0  4  0  0  0  0  0  0
   -5.4705    1.5600    0.1819 O   0  0  0  0  0  1  0  0  0  0  0  0
   -5.5123    0.0459    1.7893 O   0  0  0  0  0  0  0  0  0  0  0  0
   -2.5326    0.8038    0.6888 C   0  0  0  0  0  0  0  0  0  0  0  0
   -2.6205    1.9541    1.4254 O   0  0  0  0  0  0  0  0  0  0  0  0
    2.2236    2.0658   -0.0634 H   0  0  0  0  0  0  0  0  0  0  0  0
    2.4101    1.1518    1.4438 H   0  0  0  0  0  0  0  0  0  0  0  0
   -0.3413   -1.3170   -0.8643 H   0  0  0  0  0  0  0  0  0  0  0  0
   -4.6492   -1.5954   -0.5526 H   0  0  0  0  0  0  0  0  0  0  0  0
   -1.7356    2.3689    1.5377 H   0  0  0  0  0  0  0  0  0  0  0  0
  1  2  2  0
  2  3  1  0
  3  4  1  0
  4  5  1  0
  5  6  1  0
  6  7  1  0
  6  8  2  0
  5  9  1  0
  9 10  1  0
  9 11  2  0
  5 12  1  0
 12 13  1  0
 12 14  2  0
  2 15  1  0
 15 16  2  0
 16 17  1  0
 17 18  1  0
 18 19  1  0
 18 20  2  0
 17 21  2  0
 21 22  1  0
 22 23  1  0
 23 24  1  0
 23 25  2  0
 22 26  2  0
 26 27  1  0
 26 15  1  0
  4 28  1  0
  4 29  1  0
 16 30  1  0
 21 31  1  0
 27 32  1  0
M  CHG  8   6   1   7  -1   9   1  10  -1  12   1  13  -1  18   1  19  -1
M  CHG  2  23   1  24  -1
M  END
$$$$
