
     RDKit          3D

 26 27  0  0  0  0  0  0  0  0999 V2000
    3.7883    1.3082    1.0214 O   0  0  0  0  0  1  0  0  0  0  0  0
    3.0249    0.8703    0.1532 N   0  0  0  0  0  4  0  0  0  0  0  0
    3.3578    0.4234   -0.9513 O   0  0  0  0  0  0  0  0  0  0  0  0
    1.5855    0.9401    0.4180 C   0  0  0  0  0  0  0  0  0  0  0  0
    1.1423    2.1972    0.8544 C   0  0  0  0  0  0  0  0  0  0  0  0
   -0.2116    2.4271    0.9666 C   0  0  0  0  0  0  0  0  0  0  0  0
   -1.1079    1.4324    0.5495 C   0  0  0  0  0  0  0  0  0  0  0  0
   -2.5068    1.7040    0.8909 N   0  0  0  0  0  4  0  0  0  0  0  0
   -2.9573    2.8210    0.6119 O   0  0  0  0  0  1  0  0  0  0  0  0
   -3.1111    0.8022    1.4841 O   0  0  0  0  0  0  0  0  0  0  0  0
   -0.7002    0.1535    0.0010 C   0  0  0  0  0  0  0  0  0  0  0  0
   -1.5534   -0.8491   -0.6069 C   0  0  0  0  0  0  0  0  0  0  0  0
   -2.9010   -0.5189   -1.0779 N   0  0  0  0  0  4  0  0  0  0  0  0
   -3.7996   -1.3402   -0.8627 O   0  0  0  0  0  1  0  0  0  0  0  0
   -3.0178    0.5410   -1.7051 O   0  0  0  0  0  0  0  0  0  0  0  0
   -1.1205   -2.1352   -0.9613 C   0  0  0  0  0  0  0  0  0  0  0  0
    0.1898   -2.4891   -0.7234 C   0  0  0  0  0  0  0  0  0  0  0  0
    1.0759   -1.5234   -0.2243 C   0  0  0  0  0  0  0  0  0  0  0  0
    2.3829   -2.0555    0.1702 N   0  0  0  0  0  4  0  0  0  0  0  0
    2.9685   -2.7890   -0.6344 O   0  0  0  0  0  1  0  0  0  0  0  0
    2.7712   -1.7666    1.3087 O   0  0  0  0  0  0  0  0  0  0  0  0
    0.7002   -0.1535    0.0671 C   0  0  0  0  0  0  0  0  0  0  0  0
    1.8460    2.9889    1.1123 H   0  0  0  0  0  0  0  0  0  0  0  0
   -0.5648    3.3769    1.3689 H   0  0  0  0  0  0  0  0  0  0  0  0
   -1.8001   -2.8586   -1.4124 H   0  0  0  0  0  0  0  0  0  0  0  0
    0.5188   -3.5072   -0.9325 H   0  0  0  0  0  0  0  0  0  0  0  0
  1  2  1  0
  2  3  2  0
  2  4  1  0
  4  5  2  0
  5  6  1  0
  6  7  2  0
  7  8  1  0
  8  9  1  0
  8 10  2  0
  7 11  1  0
 11 12  2  0
 12 13  1  0
 13 14  1  0
 13 15  2  0
 12 16  1  0
 16 17  2  0
 17 18  1  0
 18 19  1  0
 19 20  1  0
 19 21  2  0
 18 22  2  0
 22  4  1  0
 22 11  1  0
  5 23  1  0
  6 24  1  0
 16 25  1  0
 17 26  1  0
M  CHG  8   1  -1   2   1   8   1   9  -1  13   1  14  -1  19   1  20  -1
M  END
$$$$
