
     RDKit          3D

 34 35  0  0  0  0  0  0  0  0999 V2000
    2.8234    1.0826    1.0109 C   0  0  0  0  0  0  0  0  0  0  0  0
    3.5949    0.3175    0.1331 C   0  0  0  0  0  0  0  0  0  0  0  0
    2.9856   -0.5695   -0.7574 C   0  0  0  0  0  0  0  0  0  0  0  0
    1.5817   -0.6900   -0.7667 C   0  0  0  0  0  0  0  0  0  0  0  0
    0.7464    0.0659    0.1068 C   0  0  0  0  0  0  0  0  0  0  0  0
    1.4202    0.9551    0.9942 C   0  0  0  0  0  0  0  0  0  0  0  0
    0.6784    1.7983    1.9457 N   0  0  0  0  0  4  0  0  0  0  0  0
   -0.3781    1.3532    2.4112 O   0  0  0  0  0  0  0  0  0  0  0  0
    1.1515    2.9113    2.2004 O   0  0  0  0  0  1  0  0  0  0  0  0
   -0.7464   -0.0659    0.0930 C   0  0  0  0  0  0  0  0  0  0  0  0
   -1.4197   -1.1241    0.7706 C   0  0  0  0  0  0  0  0  0  0  0  0
   -2.8229   -1.2523    0.7605 C   0  0  0  0  0  0  0  0  0  0  0  0
   -3.5949   -0.3174    0.0668 C   0  0  0  0  0  0  0  0  0  0  0  0
   -2.9861    0.7393   -0.6142 C   0  0  0  0  0  0  0  0  0  0  0  0
   -1.5822    0.8590   -0.5984 C   0  0  0  0  0  0  0  0  0  0  0  0
   -1.0178    2.0013   -1.3354 N   0  0  0  0  0  4  0  0  0  0  0  0
   -1.6833    3.0424   -1.3575 O   0  0  0  0  0  0  0  0  0  0  0  0
    0.0913    1.8570   -1.8645 O   0  0  0  0  0  1  0  0  0  0  0  0
   -5.0592   -0.4467    0.0534 N   0  0  0  0  0  4  0  0  0  0  0  0
   -5.5625   -1.3056    0.7879 O   0  0  0  0  0  0  0  0  0  0  0  0
   -5.6917    0.3119   -0.6915 O   0  0  0  0  0  1  0  0  0  0  0  0
   -0.6774   -2.1511    1.5196 N   0  0  0  0  0  4  0  0  0  0  0  0
    0.3796   -1.8157    2.0684 O   0  0  0  0  0  0  0  0  0  0  0  0
   -1.1507   -3.2927    1.5314 O   0  0  0  0  0  1  0  0  0  0  0  0
    1.0168   -1.6487   -1.7303 N   0  0  0  0  0  4  0  0  0  0  0  0
   -0.0927   -1.3949   -2.2155 O   0  0  0  0  0  0  0  0  0  0  0  0
    1.6824   -2.6609   -1.9747 O   0  0  0  0  0  1  0  0  0  0  0  0
    5.0592    0.4468    0.1467 N   0  0  0  0  0  4  0  0  0  0  0  0
    5.6913   -0.1359   -0.7429 O   0  0  0  0  0  0  0  0  0  0  0  0
    5.5629    1.1298    1.0469 O   0  0  0  0  0  1  0  0  0  0  0  0
    3.3041    1.7734    1.7058 H   0  0  0  0  0  0  0  0  0  0  0  0
    3.5927   -1.1643   -1.4422 H   0  0  0  0  0  0  0  0  0  0  0  0
   -3.3033   -2.0755    1.2921 H   0  0  0  0  0  0  0  0  0  0  0  0
   -3.5935    1.4665   -1.1558 H   0  0  0  0  0  0  0  0  0  0  0  0
  1  2  2  0
  2  3  1  0
  3  4  2  0
  4  5  1  0
  5  6  2  0
  6  7  1  0
  7  8  2  0
  7  9  1  0
  5 10  1  0
 10 11  2  0
 11 12  1  0
 12 13  2  0
 13 14  1  0
 14 15  2  0
 15 16  1  0
 16 17  2  0
 16 18  1  0
 13 19  1  0
 19 20  2  0
 19 21  1  0
 11 22  1  0
 22 23  2  0
 22 24  1  0
  4 25  1  0
 25 26  2  0
 25 27  1  0
  2 28  1  0
 28 29  2  0
 28 30  1  0
  6  1  1  0
 15 10  1  0
  1 31  1  0
  3 32  1  0
 12 33  1  0
 14 34  1  0
M  CHG  8   7   1   9  -1  16   1  18  -1  19   1  21  -1  22   1  24  -1
M  CHG  4  25   1  27  -1  28   1  30  -1
M  END
$$$$
