
     RDKit          3D

 35 36  0  0  0  0  0  0  0  0999 V2000
   -5.8668    0.1303   -0.2231 O   0  0  0  0  0  1  0  0  0  0  0  0
   -5.1169   -0.8339   -0.4182 N   0  0  0  0  0  4  0  0  0  0  0  0
   -5.4909   -1.9836   -0.6805 O   0  0  0  0  0  0  0  0  0  0  0  0
   -3.6678   -0.5938   -0.3383 C   0  0  0  0  0  0  0  0  0  0  0  0
   -2.7778   -1.6518   -0.5361 C   0  0  0  0  0  0  0  0  0  0  0  0
   -1.3902   -1.4157   -0.4703 C   0  0  0  0  0  0  0  0  0  0  0  0
   -0.5217   -2.5847   -0.6913 N   0  0  0  0  0  4  0  0  0  0  0  0
   -0.9418   -3.6832   -0.3121 O   0  0  0  0  0  1  0  0  0  0  0  0
    0.5659   -2.3936   -1.2501 O   0  0  0  0  0  0  0  0  0  0  0  0
   -0.8495   -0.1226   -0.2070 C   0  0  0  0  0  0  0  0  0  0  0  0
    0.6271    0.1191   -0.1186 C   0  0  0  0  0  0  0  0  0  0  0  0
    1.4424    0.4657   -1.2306 C   0  0  0  0  0  0  0  0  0  0  0  0
    0.8891    0.5974   -2.5988 N   0  0  0  0  0  4  0  0  0  0  0  0
    1.6940    0.6788   -3.5345 O   0  0  0  0  0  1  0  0  0  0  0  0
   -0.3415    0.6178   -2.7344 O   0  0  0  0  0  0  0  0  0  0  0  0
    2.8283    0.6933   -1.0778 C   0  0  0  0  0  0  0  0  0  0  0  0
    3.4358    0.5766    0.1841 C   0  0  0  0  0  0  0  0  0  0  0  0
    4.8794    0.8256    0.2946 N   0  0  0  0  0  4  0  0  0  0  0  0
    5.3934    0.6849    1.4143 O   0  0  0  0  0  1  0  0  0  0  0  0
    5.4902    1.1595   -0.7268 O   0  0  0  0  0  0  0  0  0  0  0  0
    2.6746    0.2304    1.3053 C   0  0  0  0  0  0  0  0  0  0  0  0
    3.1848    0.0904    2.5667 O   0  0  0  0  0  0  0  0  0  0  0  0
    1.2991    0.0126    1.1284 C   0  0  0  0  0  0  0  0  0  0  0  0
    0.5192   -0.3462    2.2951 N   0  0  0  0  0  4  0  0  0  0  0  0
    0.3497   -1.5543    2.4951 O   0  0  0  0  0  1  0  0  0  0  0  0
   -0.0253    0.5818    2.9035 O   0  0  0  0  0  0  0  0  0  0  0  0
   -1.8013    0.9222   -0.0057 C   0  0  0  0  0  0  0  0  0  0  0  0
   -1.3837    2.3097    0.2789 N   0  0  0  0  0  4  0  0  0  0  0  0
   -2.1579    3.0109    0.9397 O   0  0  0  0  0  1  0  0  0  0  0  0
   -0.2914    2.6878   -0.1643 O   0  0  0  0  0  0  0  0  0  0  0  0
   -3.1909    0.6918   -0.0713 C   0  0  0  0  0  0  0  0  0  0  0  0
   -3.1545   -2.6549   -0.7444 H   0  0  0  0  0  0  0  0  0  0  0  0
    3.4336    0.9628   -1.9458 H   0  0  0  0  0  0  0  0  0  0  0  0
    4.1549    0.2542    2.5878 H   0  0  0  0  0  0  0  0  0  0  0  0
   -3.8918    1.5147    0.0805 H   0  0  0  0  0  0  0  0  0  0  0  0
  1  2  1  0
  2  3  2  0
  2  4  1  0
  4  5  2  0
  5  6  1  0
  6  7  1  0
  7  8  1  0
  7  9  2  0
  6 10  2  0
 10 11  1  0
 11 12  2  0
 12 13  1  0
 13 14  1  0
 13 15  2  0
 12 16  1  0
 16 17  2  0
 17 18  1  0
 18 19  1  0
 18 20  2  0
 17 21  1  0
 21 22  1  0
 21 23  2  0
 23 24  1  0
 24 25  1  0
 24 26  2  0
 10 27  1  0
 27 28  1  0
 28 29  1  0
 28 30  2  0
 27 31  2  0
 23 11  1  0
 31  4  1  0
  5 32  1  0
 16 33  1  0
 22 34  1  0
 31 35  1  0
M  CHG  8   1  -1   2   1   7   1   8  -1  13   1  14  -1  18   1  19  -1
M  CHG  4  24   1  25  -1  28   1  29  -1
M  END
$$$$
