
     RDKit          3D

 38 39  0  0  0  0  0  0  0  0999 V2000
    3.7531   -1.5787   -1.4817 N   0  0  0  0  0  0  0  0  0  0  0  0
    2.9751   -0.5762   -0.8627 C   0  0  0  0  0  0  0  0  0  0  0  0
    3.5693    0.5153   -0.1981 C   0  0  0  0  0  0  0  0  0  0  0  0
    5.0166    0.7430   -0.2697 N   0  0  0  0  0  4  0  0  0  0  0  0
    5.5596    1.2541    0.7182 O   0  0  0  0  0  1  0  0  0  0  0  0
    5.5959    0.4262   -1.3189 O   0  0  0  0  0  0  0  0  0  0  0  0
    2.8123    1.4436    0.5327 C   0  0  0  0  0  0  0  0  0  0  0  0
    1.4218    1.2804    0.6557 C   0  0  0  0  0  0  0  0  0  0  0  0
    0.6997    2.3275    1.4116 N   0  0  0  0  0  4  0  0  0  0  0  0
    1.2499    3.4301    1.5210 O   0  0  0  0  0  1  0  0  0  0  0  0
   -0.4073    2.0461    1.8884 O   0  0  0  0  0  0  0  0  0  0  0  0
    0.7542    0.1665    0.0748 C   0  0  0  0  0  0  0  0  0  0  0  0
   -0.7280   -0.0478    0.2057 C   0  0  0  0  0  0  0  0  0  0  0  0
   -1.3066   -0.7578    1.2943 C   0  0  0  0  0  0  0  0  0  0  0  0
   -0.4869   -1.3623    2.3676 N   0  0  0  0  0  4  0  0  0  0  0  0
    0.6551   -0.9213    2.5498 O   0  0  0  0  0  1  0  0  0  0  0  0
   -0.9963   -2.2800    3.0222 O   0  0  0  0  0  0  0  0  0  0  0  0
   -2.6980   -0.9253    1.3997 C   0  0  0  0  0  0  0  0  0  0  0  0
   -3.5470   -0.4142    0.4063 C   0  0  0  0  0  0  0  0  0  0  0  0
   -4.9882   -0.6144    0.5921 N   0  0  0  0  0  4  0  0  0  0  0  0
   -5.6775   -0.7967   -0.4219 O   0  0  0  0  0  1  0  0  0  0  0  0
   -5.4166   -0.6057    1.7534 O   0  0  0  0  0  0  0  0  0  0  0  0
   -3.0493    0.2395   -0.7388 C   0  0  0  0  0  0  0  0  0  0  0  0
   -3.9097    0.8681   -1.6651 N   0  0  0  0  0  0  0  0  0  0  0  0
   -1.6431    0.4484   -0.7765 C   0  0  0  0  0  0  0  0  0  0  0  0
   -1.1089    1.2040   -1.9088 N   0  0  0  0  0  4  0  0  0  0  0  0
   -0.3536    2.1507   -1.6549 O   0  0  0  0  0  1  0  0  0  0  0  0
   -1.4149    0.8129   -3.0419 O   0  0  0  0  0  0  0  0  0  0  0  0
    1.5777   -0.7450   -0.6595 C   0  0  0  0  0  0  0  0  0  0  0  0
    0.9509   -1.9204   -1.2627 N   0  0  0  0  0  4  0  0  0  0  0  0
    1.1319   -2.0965   -2.4738 O   0  0  0  0  0  1  0  0  0  0  0  0
    0.2482   -2.6287   -0.5307 O   0  0  0  0  0  0  0  0  0  0  0  0
    3.2855   -2.1021   -2.2281 H   0  0  0  0  0  0  0  0  0  0  0  0
    4.6698   -1.2575   -1.8173 H   0  0  0  0  0  0  0  0  0  0  0  0
    3.3112    2.2912    1.0074 H   0  0  0  0  0  0  0  0  0  0  0  0
   -3.1259   -1.4509    2.2560 H   0  0  0  0  0  0  0  0  0  0  0  0
   -3.5324    0.9821   -2.6107 H   0  0  0  0  0  0  0  0  0  0  0  0
   -4.8474    0.4517   -1.7233 H   0  0  0  0  0  0  0  0  0  0  0  0
  1  2  1  0
  2  3  2  0
  3  4  1  0
  4  5  1  0
  4  6  2  0
  3  7  1  0
  7  8  2  0
  8  9  1  0
  9 10  1  0
  9 11  2  0
  8 12  1  0
 12 13  1  0
 13 14  2  0
 14 15  1  0
 15 16  1  0
 15 17  2  0
 14 18  1  0
 18 19  2  0
 19 20  1  0
 20 21  1  0
 20 22  2  0
 19 23  1  0
 23 24  1  0
 23 25  2  0
 25 26  1  0
 26 27  1  0
 26 28  2  0
 12 29  2  0
 29 30  1  0
 30 31  1  0
 30 32  2  0
 25 13  1  0
 29  2  1  0
  1 33  1  0
  1 34  1  0
  7 35  1  0
 18 36  1  0
 24 37  1  0
 24 38  1  0
M  CHG  8   4   1   5  -1   9   1  10  -1  15   1  16  -1  20   1  21  -1
M  CHG  4  26   1  27  -1  30   1  31  -1
M  END
$$$$
