
     RDKit          3D

 50 52  0  0  0  0  0  0  0  0999 V2000
    4.5907    1.1313    0.2151 C   0  0  0  0  0  0  0  0  0  0  0  0
    5.0186    0.3851    1.3164 C   0  0  0  0  0  0  0  0  0  0  0  0
    4.2439   -0.6719    1.7987 C   0  0  0  0  0  0  0  0  0  0  0  0
    3.0286   -0.9847    1.1605 C   0  0  0  0  0  0  0  0  0  0  0  0
    2.5424   -0.2608    0.0339 C   0  0  0  0  0  0  0  0  0  0  0  0
    3.3699    0.8106   -0.4139 C   0  0  0  0  0  0  0  0  0  0  0  0
    2.9877    1.6531   -1.5598 N   0  0  0  0  0  4  0  0  0  0  0  0
    3.3457    2.8357   -1.5390 O   0  0  0  0  0  0  0  0  0  0  0  0
    2.3400    1.1215   -2.4698 O   0  0  0  0  0  1  0  0  0  0  0  0
    1.2361   -0.6067   -0.6212 C   0  0  0  0  0  0  0  0  0  0  0  0
    0.0039   -0.0641   -0.1412 C   0  0  0  0  0  0  0  0  0  0  0  0
   -1.2840   -0.3624   -0.6850 C   0  0  0  0  0  0  0  0  0  0  0  0
   -1.2977   -1.2567   -1.7833 C   0  0  0  0  0  0  0  0  0  0  0  0
   -0.1119   -1.8122   -2.2958 C   0  0  0  0  0  0  0  0  0  0  0  0
    1.1365   -1.4957   -1.7263 C   0  0  0  0  0  0  0  0  0  0  0  0
    2.3287   -2.1247   -2.3458 N   0  0  0  0  0  4  0  0  0  0  0  0
    3.4066   -2.0636   -1.7395 O   0  0  0  0  0  0  0  0  0  0  0  0
    2.1779   -2.6752   -3.4432 O   0  0  0  0  0  1  0  0  0  0  0  0
   -2.5543   -1.6541   -2.4436 N   0  0  0  0  0  4  0  0  0  0  0  0
   -3.5031   -0.8605   -2.4050 O   0  0  0  0  0  0  0  0  0  0  0  0
   -2.5873   -2.7689   -2.9754 O   0  0  0  0  0  1  0  0  0  0  0  0
   -2.5346    0.2334   -0.1044 C   0  0  0  0  0  0  0  0  0  0  0  0
   -2.9779    1.5464   -0.4456 C   0  0  0  0  0  0  0  0  0  0  0  0
   -4.1495    2.1097    0.0989 C   0  0  0  0  0  0  0  0  0  0  0  0
   -4.9152    1.3704    1.0031 C   0  0  0  0  0  0  0  0  0  0  0  0
   -4.5291    0.0786    1.3675 C   0  0  0  0  0  0  0  0  0  0  0  0
   -3.3578   -0.4810    0.8176 C   0  0  0  0  0  0  0  0  0  0  0  0
   -3.0339   -1.8575    1.2379 N   0  0  0  0  0  4  0  0  0  0  0  0
   -1.8449   -2.1973    1.2309 O   0  0  0  0  0  0  0  0  0  0  0  0
   -3.9782   -2.5915    1.5482 O   0  0  0  0  0  1  0  0  0  0  0  0
   -6.1378    1.9553    1.5735 N   0  0  0  0  0  4  0  0  0  0  0  0
   -6.5197    3.0380    1.1132 O   0  0  0  0  0  0  0  0  0  0  0  0
   -6.7015    1.3274    2.4779 O   0  0  0  0  0  1  0  0  0  0  0  0
   -2.2317    2.3904   -1.3964 N   0  0  0  0  0  4  0  0  0  0  0  0
   -1.5844    1.8230   -2.2842 O   0  0  0  0  0  0  0  0  0  0  0  0
   -2.2824    3.6129   -1.2250 O   0  0  0  0  0  1  0  0  0  0  0  0
    0.0649    0.8712    0.9793 N   0  0  0  0  0  4  0  0  0  0  0  0
    0.7023    1.9126    0.7982 O   0  0  0  0  0  0  0  0  0  0  0  0
   -0.5314    0.5585    2.0134 O   0  0  0  0  0  1  0  0  0  0  0  0
    2.2752   -2.1118    1.7224 N   0  0  0  0  0  4  0  0  0  0  0  0
    1.7419   -2.8941    0.9274 O   0  0  0  0  0  0  0  0  0  0  0  0
    2.2147   -2.1842    2.9541 O   0  0  0  0  0  1  0  0  0  0  0  0
    6.2947    0.7124    1.9701 N   0  0  0  0  0  4  0  0  0  0  0  0
    6.9653    1.6315    1.4851 O   0  0  0  0  0  0  0  0  0  0  0  0
    6.6143    0.0450    2.9615 O   0  0  0  0  0  1  0  0  0  0  0  0
    5.1992    1.9573   -0.1580 H   0  0  0  0  0  0  0  0  0  0  0  0
    4.5779   -1.2567    2.6576 H   0  0  0  0  0  0  0  0  0  0  0  0
   -0.1645   -2.4964   -3.1461 H   0  0  0  0  0  0  0  0  0  0  0  0
   -4.4603    3.1163   -0.1873 H   0  0  0  0  0  0  0  0  0  0  0  0
   -5.1342   -0.4948    2.0724 H   0  0  0  0  0  0  0  0  0  0  0  0
  1  2  2  0
  2  3  1  0
  3  4  2  0
  4  5  1  0
  5  6  2  0
  6  7  1  0
  7  8  2  0
  7  9  1  0
  5 10  1  0
 10 11  2  0
 11 12  1  0
 12 13  2  0
 13 14  1  0
 14 15  2  0
 15 16  1  0
 16 17  2  0
 16 18  1  0
 13 19  1  0
 19 20  2  0
 19 21  1  0
 12 22  1  0
 22 23  2  0
 23 24  1  0
 24 25  2  0
 25 26  1  0
 26 27  2  0
 27 28  1  0
 28 29  2  0
 28 30  1  0
 25 31  1  0
 31 32  2  0
 31 33  1  0
 23 34  1  0
 34 35  2  0
 34 36  1  0
 11 37  1  0
 37 38  2  0
 37 39  1  0
  4 40  1  0
 40 41  2  0
 40 42  1  0
  2 43  1  0
 43 44  2  0
 43 45  1  0
  6  1  1  0
 15 10  1  0
 27 22  1  0
  1 46  1  0
  3 47  1  0
 14 48  1  0
 24 49  1  0
 26 50  1  0
M  CHG  8   7   1   9  -1  16   1  18  -1  19   1  21  -1  28   1  30  -1
M  CHG  8  31   1  33  -1  34   1  36  -1  37   1  39  -1  40   1  42  -1
M  CHG  2  43   1  45  -1
M  END
$$$$
