
     RDKit          3D

 48 50  0  0  0  0  0  0  0  0999 V2000
    7.6722   -0.9002   -1.6319 O   0  0  0  0  0  1  0  0  0  0  0  0
    7.1554   -1.0536   -0.5185 N   0  0  0  0  0  4  0  0  0  0  0  0
    7.7588   -1.3914    0.5072 O   0  0  0  0  0  0  0  0  0  0  0  0
    5.7083   -0.8248   -0.4073 C   0  0  0  0  0  0  0  0  0  0  0  0
    5.0405   -1.1702    0.7708 C   0  0  0  0  0  0  0  0  0  0  0  0
    3.6558   -0.9396    0.8648 C   0  0  0  0  0  0  0  0  0  0  0  0
    3.0179   -1.3161    2.1222 N   0  0  0  0  0  4  0  0  0  0  0  0
    2.3260   -0.4590    2.6841 O   0  0  0  0  0  1  0  0  0  0  0  0
    3.2207   -2.4663    2.5254 O   0  0  0  0  0  0  0  0  0  0  0  0
    2.8945   -0.3773   -0.1892 C   0  0  0  0  0  0  0  0  0  0  0  0
    1.4326   -0.1353   -0.0648 C   0  0  0  0  0  0  0  0  0  0  0  0
    0.5614   -1.1840   -0.4293 C   0  0  0  0  0  0  0  0  0  0  0  0
   -0.8424   -1.0496   -0.3496 C   0  0  0  0  0  0  0  0  0  0  0  0
   -1.6533   -2.2145   -0.7554 N   0  0  0  0  0  4  0  0  0  0  0  0
   -1.0904   -3.3160   -0.7963 O   0  0  0  0  0  1  0  0  0  0  0  0
   -2.8419   -2.0212   -1.0424 O   0  0  0  0  0  0  0  0  0  0  0  0
   -1.4334    0.1475    0.1186 C   0  0  0  0  0  0  0  0  0  0  0  0
   -2.8950    0.3851    0.2542 C   0  0  0  0  0  0  0  0  0  0  0  0
   -3.5973    0.0885    1.4481 C   0  0  0  0  0  0  0  0  0  0  0  0
   -2.8959   -0.4573    2.6057 N   0  0  0  0  0  4  0  0  0  0  0  0
   -2.1937   -1.4583    2.4212 O   0  0  0  0  0  1  0  0  0  0  0  0
   -3.0604    0.1278    3.6814 O   0  0  0  0  0  0  0  0  0  0  0  0
   -4.9807    0.2985    1.5951 C   0  0  0  0  0  0  0  0  0  0  0  0
   -5.7077    0.8142    0.5187 C   0  0  0  0  0  0  0  0  0  0  0  0
   -7.1541    1.0331    0.6545 N   0  0  0  0  0  4  0  0  0  0  0  0
   -7.7234    1.6548   -0.2509 O   0  0  0  0  0  1  0  0  0  0  0  0
   -7.7046    0.5873    1.6687 O   0  0  0  0  0  0  0  0  0  0  0  0
   -5.0686    1.1288   -0.6838 C   0  0  0  0  0  0  0  0  0  0  0  0
   -3.6815    0.9187   -0.7990 C   0  0  0  0  0  0  0  0  0  0  0  0
   -3.0748    1.2762   -2.0797 N   0  0  0  0  0  4  0  0  0  0  0  0
   -2.0642    1.9886   -2.0462 O   0  0  0  0  0  1  0  0  0  0  0  0
   -3.6304    0.8590   -3.1013 O   0  0  0  0  0  0  0  0  0  0  0  0
   -0.5616    1.1875    0.5060 C   0  0  0  0  0  0  0  0  0  0  0  0
    0.8418    1.0587    0.4114 C   0  0  0  0  0  0  0  0  0  0  0  0
    1.6535    2.2117    0.8483 N   0  0  0  0  0  4  0  0  0  0  0  0
    2.8242    2.2795    0.4516 O   0  0  0  0  0  1  0  0  0  0  0  0
    1.1088    3.0504    1.5774 O   0  0  0  0  0  0  0  0  0  0  0  0
    3.6225   -0.0596   -1.3646 C   0  0  0  0  0  0  0  0  0  0  0  0
    2.9516    0.5168   -2.5281 N   0  0  0  0  0  4  0  0  0  0  0  0
    3.4674    1.5180   -3.0361 O   0  0  0  0  0  1  0  0  0  0  0  0
    1.9310   -0.0537   -2.9314 O   0  0  0  0  0  0  0  0  0  0  0  0
    5.0094   -0.2690   -1.4825 C   0  0  0  0  0  0  0  0  0  0  0  0
    5.5804   -1.6084    1.6115 H   0  0  0  0  0  0  0  0  0  0  0  0
    0.9875   -2.1192   -0.8012 H   0  0  0  0  0  0  0  0  0  0  0  0
   -5.4738    0.0554    2.5374 H   0  0  0  0  0  0  0  0  0  0  0  0
   -5.6328    1.5294   -1.5274 H   0  0  0  0  0  0  0  0  0  0  0  0
   -0.9878    2.1249    0.8718 H   0  0  0  0  0  0  0  0  0  0  0  0
    5.5273    0.0043   -2.4032 H   0  0  0  0  0  0  0  0  0  0  0  0
  1  2  1  0
  2  3  2  0
  2  4  1  0
  4  5  2  0
  5  6  1  0
  6  7  1  0
  7  8  1  0
  7  9  2  0
  6 10  2  0
 10 11  1  0
 11 12  2  0
 12 13  1  0
 13 14  1  0
 14 15  1  0
 14 16  2  0
 13 17  2  0
 17 18  1  0
 18 19  2  0
 19 20  1  0
 20 21  1  0
 20 22  2  0
 19 23  1  0
 23 24  2  0
 24 25  1  0
 25 26  1  0
 25 27  2  0
 24 28  1  0
 28 29  2  0
 29 30  1  0
 30 31  1  0
 30 32  2  0
 17 33  1  0
 33 34  2  0
 34 35  1  0
 35 36  1  0
 35 37  2  0
 10 38  1  0
 38 39  1  0
 39 40  1  0
 39 41  2  0
 38 42  2  0
 29 18  1  0
 34 11  1  0
 42  4  1  0
  5 43  1  0
 12 44  1  0
 23 45  1  0
 28 46  1  0
 33 47  1  0
 42 48  1  0
M  CHG  8   1  -1   2   1   7   1   8  -1  14   1  15  -1  20   1  21  -1
M  CHG  8  25   1  26  -1  30   1  31  -1  35   1  36  -1  39   1  40  -1
M  END
$$$$
