
     RDKit          3D

 68 71  0  0  0  0  0  0  0  0999 V2000
   -1.1098   -5.0713   -1.5827 O   0  0  0  0  0  1  0  0  0  0  0  0
   -0.5778   -4.6653   -0.5451 N   0  0  0  0  0  4  0  0  0  0  0  0
   -0.5025   -5.2553    0.5354 O   0  0  0  0  0  0  0  0  0  0  0  0
    0.0062   -3.3396   -0.6077 C   0  0  0  0  0  0  0  0  0  0  0  0
   -0.6924   -2.2493   -0.0364 C   0  0  0  0  0  0  0  0  0  0  0  0
   -1.9916   -2.4578    0.6504 C   0  0  0  0  0  0  0  0  0  0  0  0
   -3.1613   -2.7692   -0.0612 C   0  0  0  0  0  0  0  0  0  0  0  0
   -4.3882   -2.8938    0.5942 C   0  0  0  0  0  0  0  0  0  0  0  0
   -4.4622   -2.7340    1.9743 C   0  0  0  0  0  0  0  0  0  0  0  0
   -3.3065   -2.4728    2.7029 C   0  0  0  0  0  0  0  0  0  0  0  0
   -2.0802   -2.3464    2.0472 C   0  0  0  0  0  0  0  0  0  0  0  0
   -0.1372   -0.9138   -0.1527 C   0  0  0  0  0  0  0  0  0  0  0  0
   -1.1055    0.2414    0.0478 C   0  0  0  0  0  0  0  0  0  0  0  0
   -1.1298    1.0711    1.1970 C   0  0  0  0  0  0  0  0  0  0  0  0
   -0.0431    0.9902    2.1397 N   0  0  0  0  0  4  0  0  0  0  0  0
   -0.0042    0.0077    2.8749 O   0  0  0  0  0  1  0  0  0  0  0  0
    0.8235    1.8640    2.0177 O   0  0  0  0  0  0  0  0  0  0  0  0
   -2.0968    2.0744    1.3903 C   0  0  0  0  0  0  0  0  0  0  0  0
   -2.0305    2.9090    2.5691 N   0  0  0  0  0  4  0  0  0  0  0  0
   -2.1653    2.3358    3.6504 O   0  0  0  0  0  1  0  0  0  0  0  0
   -1.7952    4.1021    2.3773 O   0  0  0  0  0  0  0  0  0  0  0  0
   -3.0813    2.2986    0.4300 C   0  0  0  0  0  0  0  0  0  0  0  0
   -4.0681    3.3337    0.6395 N   0  0  0  0  0  4  0  0  0  0  0  0
   -4.8080    3.1856    1.6136 O   0  0  0  0  0  1  0  0  0  0  0  0
   -4.0642    4.2662   -0.1644 O   0  0  0  0  0  0  0  0  0  0  0  0
   -3.0991    1.5288   -0.7327 C   0  0  0  0  0  0  0  0  0  0  0  0
   -4.0922    1.8050   -1.7480 N   0  0  0  0  0  4  0  0  0  0  0  0
   -3.6674    2.2215   -2.8270 O   0  0  0  0  0  1  0  0  0  0  0  0
   -5.2652    1.6010   -1.4293 O   0  0  0  0  0  0  0  0  0  0  0  0
   -2.1389    0.5125   -0.9237 C   0  0  0  0  0  0  0  0  0  0  0  0
   -2.1914   -0.2722   -2.1633 N   0  0  0  0  0  4  0  0  0  0  0  0
   -3.2885   -0.7275   -2.4896 O   0  0  0  0  0  1  0  0  0  0  0  0
   -1.1185   -0.4899   -2.7370 O   0  0  0  0  0  0  0  0  0  0  0  0
    1.2086   -0.7512   -0.6552 C   0  0  0  0  0  0  0  0  0  0  0  0
    2.0790    0.4721   -0.3864 C   0  0  0  0  0  0  0  0  0  0  0  0
    2.0782    1.6420   -1.2010 C   0  0  0  0  0  0  0  0  0  0  0  0
    1.0630    1.8153   -2.2136 N   0  0  0  0  0  4  0  0  0  0  0  0
   -0.0337    2.2062   -1.7971 O   0  0  0  0  0  1  0  0  0  0  0  0
    1.3717    1.5499   -3.3719 O   0  0  0  0  0  0  0  0  0  0  0  0
    3.0235    2.6769   -1.0518 C   0  0  0  0  0  0  0  0  0  0  0  0
    2.9758    3.8261   -1.9299 N   0  0  0  0  0  4  0  0  0  0  0  0
    1.9753    4.5389   -1.8346 O   0  0  0  0  0  1  0  0  0  0  0  0
    3.9284    3.9691   -2.6959 O   0  0  0  0  0  0  0  0  0  0  0  0
    4.0182    2.5882   -0.0804 C   0  0  0  0  0  0  0  0  0  0  0  0
    5.0016    3.6404    0.0452 N   0  0  0  0  0  4  0  0  0  0  0  0
    6.1708    3.3225   -0.1755 O   0  0  0  0  0  1  0  0  0  0  0  0
    4.5705    4.7532    0.3515 O   0  0  0  0  0  0  0  0  0  0  0  0
    4.0538    1.4841    0.7704 C   0  0  0  0  0  0  0  0  0  0  0  0
    5.1021    1.3852    1.7661 N   0  0  0  0  0  4  0  0  0  0  0  0
    5.8500    0.4105    1.6661 O   0  0  0  0  0  1  0  0  0  0  0  0
    5.1451    2.2812    2.6103 O   0  0  0  0  0  0  0  0  0  0  0  0
    3.0995    0.4498    0.6362 C   0  0  0  0  0  0  0  0  0  0  0  0
    3.1001   -0.6118    1.6517 N   0  0  0  0  0  4  0  0  0  0  0  0
    3.0200   -1.7749    1.2509 O   0  0  0  0  0  1  0  0  0  0  0  0
    3.1045   -0.2485    2.8277 O   0  0  0  0  0  0  0  0  0  0  0  0
    1.8079   -1.8973   -1.3021 C   0  0  0  0  0  0  0  0  0  0  0  0
    3.1430   -1.7662   -1.8973 N   0  0  0  0  0  4  0  0  0  0  0  0
    3.9841   -2.6150   -1.6007 O   0  0  0  0  0  1  0  0  0  0  0  0
    3.3574   -0.7434   -2.5571 O   0  0  0  0  0  0  0  0  0  0  0  0
    1.2025   -3.1588   -1.2918 C   0  0  0  0  0  0  0  0  0  0  0  0
    1.7939   -4.2640   -2.0140 N   0  0  0  0  0  4  0  0  0  0  0  0
    2.1284   -5.2497   -1.3547 O   0  0  0  0  0  1  0  0  0  0  0  0
    1.9018   -4.1128   -3.2341 O   0  0  0  0  0  0  0  0  0  0  0  0
   -3.1447   -2.9379   -1.1380 H   0  0  0  0  0  0  0  0  0  0  0  0
   -5.2856   -3.1370    0.0275 H   0  0  0  0  0  0  0  0  0  0  0  0
   -5.4158   -2.8491    2.4858 H   0  0  0  0  0  0  0  0  0  0  0  0
   -3.3556   -2.3929    3.7875 H   0  0  0  0  0  0  0  0  0  0  0  0
   -1.1903   -2.1914    2.6558 H   0  0  0  0  0  0  0  0  0  0  0  0
  1  2  1  0
  2  3  2  0
  2  4  1  0
  4  5  2  0
  5  6  1  0
  6  7  2  0
  7  8  1  0
  8  9  2  0
  9 10  1  0
 10 11  2  0
  5 12  1  0
 12 13  1  0
 13 14  2  0
 14 15  1  0
 15 16  1  0
 15 17  2  0
 14 18  1  0
 18 19  1  0
 19 20  1  0
 19 21  2  0
 18 22  2  0
 22 23  1  0
 23 24  1  0
 23 25  2  0
 22 26  1  0
 26 27  1  0
 27 28  1  0
 27 29  2  0
 26 30  2  0
 30 31  1  0
 31 32  1  0
 31 33  2  0
 12 34  2  0
 34 35  1  0
 35 36  2  0
 36 37  1  0
 37 38  1  0
 37 39  2  0
 36 40  1  0
 40 41  1  0
 41 42  1  0
 41 43  2  0
 40 44  2  0
 44 45  1  0
 45 46  1  0
 45 47  2  0
 44 48  1  0
 48 49  1  0
 49 50  1  0
 49 51  2  0
 48 52  2  0
 52 53  1  0
 53 54  1  0
 53 55  2  0
 34 56  1  0
 56 57  1  0
 57 58  1  0
 57 59  2  0
 56 60  2  0
 60 61  1  0
 61 62  1  0
 61 63  2  0
 11  6  1  0
 30 13  1  0
 52 35  1  0
 60  4  1  0
  7 64  1  0
  8 65  1  0
  9 66  1  0
 10 67  1  0
 11 68  1  0
M  CHG  8   1  -1   2   1  15   1  16  -1  19   1  20  -1  23   1  24  -1
M  CHG  8  27   1  28  -1  31   1  32  -1  37   1  38  -1  41   1  42  -1
M  CHG  8  45   1  46  -1  49   1  50  -1  53   1  54  -1  57   1  58  -1
M  CHG  2  61   1  62  -1
M  END
$$$$
