
     RDKit          3D

 68 71  0  0  0  0  0  0  0  0999 V2000
    9.1782    2.4980    0.7575 O   0  0  0  0  0  1  0  0  0  0  0  0
    8.7677    1.7556   -0.1425 N   0  0  0  0  0  4  0  0  0  0  0  0
    9.3342    1.5739   -1.2270 O   0  0  0  0  0  0  0  0  0  0  0  0
    7.5114    1.0290    0.0990 C   0  0  0  0  0  0  0  0  0  0  0  0
    7.0261    0.1477   -0.8666 C   0  0  0  0  0  0  0  0  0  0  0  0
    5.8258   -0.5494   -0.6283 C   0  0  0  0  0  0  0  0  0  0  0  0
    5.3827   -1.4578   -1.7014 N   0  0  0  0  0  4  0  0  0  0  0  0
    5.6575   -1.1448   -2.8637 O   0  0  0  0  0  1  0  0  0  0  0  0
    4.7809   -2.4850   -1.3649 O   0  0  0  0  0  0  0  0  0  0  0  0
    5.0724   -0.3912    0.5773 C   0  0  0  0  0  0  0  0  0  0  0  0
    3.7862   -1.1341    0.8058 C   0  0  0  0  0  0  0  0  0  0  0  0
    3.7396   -2.4264    1.4017 C   0  0  0  0  0  0  0  0  0  0  0  0
    4.9622   -3.1390    1.8251 N   0  0  0  0  0  4  0  0  0  0  0  0
    5.9730   -2.4662    2.0669 O   0  0  0  0  0  1  0  0  0  0  0  0
    4.8967   -4.3702    1.9235 O   0  0  0  0  0  0  0  0  0  0  0  0
    2.5178   -3.0831    1.6255 C   0  0  0  0  0  0  0  0  0  0  0  0
    1.3211   -2.4600    1.2484 C   0  0  0  0  0  0  0  0  0  0  0  0
    0.0894   -3.1618    1.5435 N   0  0  0  0  0  4  0  0  0  0  0  0
   -0.0587   -4.2686    1.0119 O   0  0  0  0  0  1  0  0  0  0  0  0
   -0.6991   -2.6073    2.3165 O   0  0  0  0  0  0  0  0  0  0  0  0
    1.2780   -1.2045    0.6295 C   0  0  0  0  0  0  0  0  0  0  0  0
    0.0838   -0.5761    0.1998 N   0  0  0  0  0  0  0  0  0  0  0  0
   -0.5349   -1.2819   -0.6263 N   0  0  0  0  0  0  0  0  0  0  0  0
   -1.5468   -0.5218   -1.2552 C   0  0  0  0  0  0  0  0  0  0  0  0
   -1.4174   -0.1188   -2.5916 C   0  0  0  0  0  0  0  0  0  0  0  0
   -0.2156   -0.4608   -3.3439 N   0  0  0  0  0  4  0  0  0  0  0  0
   -0.3785   -0.8376   -4.5097 O   0  0  0  0  0  1  0  0  0  0  0  0
    0.8761   -0.3353   -2.7756 O   0  0  0  0  0  0  0  0  0  0  0  0
   -2.4211    0.6014   -3.2592 C   0  0  0  0  0  0  0  0  0  0  0  0
   -3.6019    0.9455   -2.5774 C   0  0  0  0  0  0  0  0  0  0  0  0
   -4.6177    1.6970   -3.3382 N   0  0  0  0  0  4  0  0  0  0  0  0
   -4.6050    1.5820   -4.5697 O   0  0  0  0  0  1  0  0  0  0  0  0
   -5.4175    2.3965   -2.7022 O   0  0  0  0  0  0  0  0  0  0  0  0
   -3.8089    0.5678   -1.2240 C   0  0  0  0  0  0  0  0  0  0  0  0
   -5.0422    0.9220   -0.4446 C   0  0  0  0  0  0  0  0  0  0  0  0
   -5.1337    2.1196    0.3338 C   0  0  0  0  0  0  0  0  0  0  0  0
   -4.0230    3.1026    0.4048 N   0  0  0  0  0  4  0  0  0  0  0  0
   -3.0770    2.9740   -0.3841 O   0  0  0  0  0  1  0  0  0  0  0  0
   -4.1078    4.0020    1.2490 O   0  0  0  0  0  0  0  0  0  0  0  0
   -6.2973    2.4376    1.0675 C   0  0  0  0  0  0  0  0  0  0  0  0
   -7.3960    1.5748    1.0450 C   0  0  0  0  0  0  0  0  0  0  0  0
   -8.6129    1.9195    1.7965 N   0  0  0  0  0  4  0  0  0  0  0  0
   -8.5692    2.9159    2.5280 O   0  0  0  0  0  1  0  0  0  0  0  0
   -9.6019    1.1933    1.6419 O   0  0  0  0  0  0  0  0  0  0  0  0
   -7.3500    0.3914    0.3070 C   0  0  0  0  0  0  0  0  0  0  0  0
   -6.1893    0.0729   -0.4238 C   0  0  0  0  0  0  0  0  0  0  0  0
   -6.2256   -1.1942   -1.1740 N   0  0  0  0  0  4  0  0  0  0  0  0
   -6.8737   -2.1258   -0.6855 O   0  0  0  0  0  1  0  0  0  0  0  0
   -5.6111   -1.2385   -2.2474 O   0  0  0  0  0  0  0  0  0  0  0  0
   -2.7537   -0.1749   -0.6183 C   0  0  0  0  0  0  0  0  0  0  0  0
   -2.9510   -0.6299    0.7385 N   0  0  0  0  0  4  0  0  0  0  0  0
   -2.6800    0.1732    1.6371 O   0  0  0  0  0  1  0  0  0  0  0  0
   -3.4978   -1.7289    0.8681 O   0  0  0  0  0  0  0  0  0  0  0  0
    2.5235   -0.5631    0.4465 C   0  0  0  0  0  0  0  0  0  0  0  0
    2.5007    0.7841   -0.1082 N   0  0  0  0  0  4  0  0  0  0  0  0
    1.8613    1.6408    0.5122 O   0  0  0  0  0  1  0  0  0  0  0  0
    3.2001    0.9915   -1.1061 O   0  0  0  0  0  0  0  0  0  0  0  0
    5.6089    0.5245    1.5347 C   0  0  0  0  0  0  0  0  0  0  0  0
    4.9452    0.7849    2.8364 N   0  0  0  0  0  4  0  0  0  0  0  0
    4.0236    0.0351    3.1828 O   0  0  0  0  0  1  0  0  0  0  0  0
    5.3475    1.7460    3.5023 O   0  0  0  0  0  0  0  0  0  0  0  0
    6.8134    1.2228    1.2956 C   0  0  0  0  0  0  0  0  0  0  0  0
    7.5726   -0.0021   -1.7993 H   0  0  0  0  0  0  0  0  0  0  0  0
    2.4869   -4.0677    2.0964 H   0  0  0  0  0  0  0  0  0  0  0  0
   -2.2777    0.8898   -4.3026 H   0  0  0  0  0  0  0  0  0  0  0  0
   -6.3491    3.3610    1.6477 H   0  0  0  0  0  0  0  0  0  0  0  0
   -8.2094   -0.2809    0.2936 H   0  0  0  0  0  0  0  0  0  0  0  0
    7.2083    1.9139    2.0424 H   0  0  0  0  0  0  0  0  0  0  0  0
  1  2  1  0
  2  3  2  0
  2  4  1  0
  4  5  2  0
  5  6  1  0
  6  7  1  0
  7  8  1  0
  7  9  2  0
  6 10  2  0
 10 11  1  0
 11 12  2  0
 12 13  1  0
 13 14  1  0
 13 15  2  0
 12 16  1  0
 16 17  2  0
 17 18  1  0
 18 19  1  0
 18 20  2  0
 17 21  1  0
 21 22  1  0
 22 23  2  0
 23 24  1  0
 24 25  2  0
 25 26  1  0
 26 27  1  0
 26 28  2  0
 25 29  1  0
 29 30  2  0
 30 31  1  0
 31 32  1  0
 31 33  2  0
 30 34  1  0
 34 35  1  0
 35 36  2  0
 36 37  1  0
 37 38  1  0
 37 39  2  0
 36 40  1  0
 40 41  2  0
 41 42  1  0
 42 43  1  0
 42 44  2  0
 41 45  1  0
 45 46  2  0
 46 47  1  0
 47 48  1  0
 47 49  2  0
 34 50  2  0
 50 51  1  0
 51 52  1  0
 51 53  2  0
 21 54  2  0
 54 55  1  0
 55 56  1  0
 55 57  2  0
 10 58  1  0
 58 59  1  0
 59 60  1  0
 59 61  2  0
 58 62  2  0
 46 35  1  0
 50 24  1  0
 54 11  1  0
 62  4  1  0
  5 63  1  0
 16 64  1  0
 29 65  1  0
 40 66  1  0
 45 67  1  0
 62 68  1  0
M  CHG  8   1  -1   2   1   7   1   8  -1  13   1  14  -1  18   1  19  -1
M  CHG  8  26   1  27  -1  31   1  32  -1  37   1  38  -1  42   1  43  -1
M  CHG  8  47   1  48  -1  51   1  52  -1  55   1  56  -1  59   1  60  -1
M  END
$$$$
