
     RDKit          3D

 20 20  0  0  0  0  0  0  0  0999 V2000
   -3.1553   -0.8785    0.6785 O   0  0  0  0  0  0  0  0  0  0  0  0
   -2.5660   -0.0194    0.0384 C   0  0  0  0  0  0  0  0  0  0  0  0
   -1.0903   -0.0051    0.0068 C   0  0  0  0  0  0  0  0  0  0  0  0
   -0.3719    1.1939   -0.0873 C   0  0  0  0  0  0  0  0  0  0  0  0
   -1.0606    2.4680   -0.1652 N   0  0  0  0  0  4  0  0  0  0  0  0
   -1.8711    2.7230    0.7301 O   0  0  0  0  0  1  0  0  0  0  0  0
   -0.7778    3.1925   -1.1243 O   0  0  0  0  0  0  0  0  0  0  0  0
    1.0345    1.2266   -0.0822 C   0  0  0  0  0  0  0  0  0  0  0  0
    1.7417    0.0227    0.0293 C   0  0  0  0  0  0  0  0  0  0  0  0
    3.2114    0.0390    0.0418 N   0  0  0  0  0  4  0  0  0  0  0  0
    3.7665    1.1438    0.0792 O   0  0  0  0  0  1  0  0  0  0  0  0
    3.7934   -1.0516    0.0123 O   0  0  0  0  0  0  0  0  0  0  0  0
    1.0592   -1.1958    0.1171 C   0  0  0  0  0  0  0  0  0  0  0  0
   -0.3472   -1.1905    0.0979 C   0  0  0  0  0  0  0  0  0  0  0  0
   -1.0015   -2.4855    0.0589 N   0  0  0  0  0  4  0  0  0  0  0  0
   -0.8293   -3.2252    1.0342 O   0  0  0  0  0  1  0  0  0  0  0  0
   -1.5847   -2.7716   -0.9940 O   0  0  0  0  0  0  0  0  0  0  0  0
   -3.1106    0.7747   -0.4988 H   0  0  0  0  0  0  0  0  0  0  0  0
    1.5599    2.1802   -0.1556 H   0  0  0  0  0  0  0  0  0  0  0  0
    1.5996   -2.1413    0.1827 H   0  0  0  0  0  0  0  0  0  0  0  0
  1  2  2  0
  2  3  1  0
  3  4  2  0
  4  5  1  0
  5  6  1  0
  5  7  2  0
  4  8  1  0
  8  9  2  0
  9 10  1  0
 10 11  1  0
 10 12  2  0
  9 13  1  0
 13 14  2  0
 14 15  1  0
 15 16  1  0
 15 17  2  0
 14  3  1  0
  2 18  1  0
  8 19  1  0
 13 20  1  0
M  CHG  6   5   1   6  -1  10   1  11  -1  15   1  16  -1
M  END
$$$$
