
     RDKit          3D

 22 22  0  0  0  0  0  0  0  0999 V2000
    1.7368    0.9115    0.2460 C   0  0  0  0  0  0  0  0  0  0  0  0
    2.0208   -0.3854    0.6896 C   0  0  0  0  0  0  0  0  0  0  0  0
    1.0479   -1.3888    0.6173 C   0  0  0  0  0  0  0  0  0  0  0  0
   -0.2203   -1.0722    0.0967 C   0  0  0  0  0  0  0  0  0  0  0  0
   -0.5502    0.2179   -0.3413 C   0  0  0  0  0  0  0  0  0  0  0  0
    0.4545    1.1911   -0.2583 C   0  0  0  0  0  0  0  0  0  0  0  0
    0.1955    2.5560   -0.6669 N   0  0  0  0  0  4  0  0  0  0  0  0
    0.8620    2.9840   -1.6146 O   0  0  0  0  0  0  0  0  0  0  0  0
   -0.6576    3.1790   -0.0281 O   0  0  0  0  0  1  0  0  0  0  0  0
   -1.8915    0.5611   -0.8552 C   0  0  0  0  0  0  0  0  0  0  0  0
   -2.9431   -0.0562   -0.4286 N   0  0  0  0  0  0  0  0  0  0  0  0
   -4.0667    0.4743   -1.0689 O   0  0  0  0  0  0  0  0  0  0  0  0
   -1.1446   -2.1779   -0.0629 N   0  0  0  0  0  4  0  0  0  0  0  0
   -1.3585   -2.5535   -1.2220 O   0  0  0  0  0  0  0  0  0  0  0  0
   -1.5575   -2.7110    0.9738 O   0  0  0  0  0  1  0  0  0  0  0  0
    3.3533   -0.6976    1.2252 N   0  0  0  0  0  4  0  0  0  0  0  0
    3.5912   -1.8775    1.5095 O   0  0  0  0  0  0  0  0  0  0  0  0
    4.1480    0.2415    1.3549 O   0  0  0  0  0  1  0  0  0  0  0  0
    2.4890    1.7000    0.2944 H   0  0  0  0  0  0  0  0  0  0  0  0
    1.2639   -2.4077    0.9420 H   0  0  0  0  0  0  0  0  0  0  0  0
   -1.9779    1.3791   -1.5936 H   0  0  0  0  0  0  0  0  0  0  0  0
   -4.7951   -0.0679   -0.7093 H   0  0  0  0  0  0  0  0  0  0  0  0
  1  2  2  0
  2  3  1  0
  3  4  2  0
  4  5  1  0
  5  6  2  0
  6  7  1  0
  7  8  2  0
  7  9  1  0
  5 10  1  0
 10 11  2  3
 11 12  1  0
  4 13  1  0
 13 14  2  0
 13 15  1  0
  2 16  1  0
 16 17  2  0
 16 18  1  0
  6  1  1  0
  1 19  1  0
  3 20  1  0
 10 21  1  0
 12 22  1  0
M  CHG  6   7   1   9  -1  13   1  15  -1  16   1  18  -1
M  END
$$$$
