
     RDKit          3D

 22 22  0  0  0  0  0  0  0  0999 V2000
    1.3471    0.8365   -0.8168 C   0  0  0  0  0  0  0  0  0  0  0  0
    1.9730   -0.3525   -0.4313 C   0  0  0  0  0  0  0  0  0  0  0  0
    1.2790   -1.3111    0.3137 C   0  0  0  0  0  0  0  0  0  0  0  0
   -0.0625   -1.0689    0.6575 C   0  0  0  0  0  0  0  0  0  0  0  0
   -0.7498    0.0984    0.2675 C   0  0  0  0  0  0  0  0  0  0  0  0
    0.0041    1.0487   -0.4579 C   0  0  0  0  0  0  0  0  0  0  0  0
   -0.5820    2.3297   -0.8493 N   0  0  0  0  0  4  0  0  0  0  0  0
   -1.0884    3.0135    0.0503 O   0  0  0  0  0  0  0  0  0  0  0  0
   -0.4655    2.6623   -2.0355 O   0  0  0  0  0  1  0  0  0  0  0  0
   -2.2128    0.3134    0.5616 C   0  0  0  0  0  0  0  0  0  0  0  0
   -2.8526    0.6016   -0.6719 O   0  0  0  0  0  0  0  0  0  0  0  0
   -0.7170   -2.0833    1.4723 N   0  0  0  0  0  4  0  0  0  0  0  0
   -1.1903   -1.7108    2.5527 O   0  0  0  0  0  0  0  0  0  0  0  0
   -0.7305   -3.2368    1.0290 O   0  0  0  0  0  1  0  0  0  0  0  0
    3.3772   -0.5881   -0.7936 N   0  0  0  0  0  4  0  0  0  0  0  0
    3.8878   -1.6564   -0.4336 O   0  0  0  0  0  0  0  0  0  0  0  0
    3.9609    0.2993   -1.4282 O   0  0  0  0  0  1  0  0  0  0  0  0
    1.8856    1.5952   -1.3857 H   0  0  0  0  0  0  0  0  0  0  0  0
    1.7651   -2.2345    0.6305 H   0  0  0  0  0  0  0  0  0  0  0  0
   -2.7105   -0.5697    0.9661 H   0  0  0  0  0  0  0  0  0  0  0  0
   -2.3528    1.1389    1.2662 H   0  0  0  0  0  0  0  0  0  0  0  0
   -3.7651    0.8747   -0.4637 H   0  0  0  0  0  0  0  0  0  0  0  0
  1  2  2  0
  2  3  1  0
  3  4  2  0
  4  5  1  0
  5  6  2  0
  6  7  1  0
  7  8  2  0
  7  9  1  0
  5 10  1  0
 10 11  1  0
  4 12  1  0
 12 13  2  0
 12 14  1  0
  2 15  1  0
 15 16  2  0
 15 17  1  0
  6  1  1  0
  1 18  1  0
  3 19  1  0
 10 20  1  0
 10 21  1  0
 11 22  1  0
M  CHG  6   7   1   9  -1  12   1  14  -1  15   1  17  -1
M  END
$$$$
