
     RDKit          3D

 22 22  0  0  0  0  0  0  0  0999 V2000
    2.5790   -0.2182    0.2202 C   0  0  0  0  0  0  0  0  0  0  0  0
    1.0934   -0.0253    0.0496 C   0  0  0  0  0  0  0  0  0  0  0  0
    0.1988   -1.1186    0.0228 C   0  0  0  0  0  0  0  0  0  0  0  0
   -1.1927   -0.9746   -0.1298 C   0  0  0  0  0  0  0  0  0  0  0  0
   -1.7181    0.3199   -0.2533 C   0  0  0  0  0  0  0  0  0  0  0  0
   -0.8706    1.4380   -0.2105 C   0  0  0  0  0  0  0  0  0  0  0  0
    0.5121    1.2524   -0.0471 C   0  0  0  0  0  0  0  0  0  0  0  0
    1.3306    2.4577    0.0306 N   0  0  0  0  0  4  0  0  0  0  0  0
    2.0367    2.5955    1.0358 O   0  0  0  0  0  0  0  0  0  0  0  0
    1.2340    3.2563   -0.9083 O   0  0  0  0  0  1  0  0  0  0  0  0
   -3.1599    0.5427   -0.4144 N   0  0  0  0  0  4  0  0  0  0  0  0
   -3.5646    1.7108   -0.4483 O   0  0  0  0  0  0  0  0  0  0  0  0
   -3.8833   -0.4605   -0.5040 O   0  0  0  0  0  1  0  0  0  0  0  0
   -1.9563   -2.1109   -0.1398 O   0  0  0  0  0  0  0  0  0  0  0  0
    0.7236   -2.4638    0.1658 N   0  0  0  0  0  4  0  0  0  0  0  0
    0.9720   -3.0792   -0.8786 O   0  0  0  0  0  0  0  0  0  0  0  0
    0.9369   -2.8565    1.3197 O   0  0  0  0  0  1  0  0  0  0  0  0
    3.1455    0.5472   -0.3201 H   0  0  0  0  0  0  0  0  0  0  0  0
    2.8418   -0.1789    1.2818 H   0  0  0  0  0  0  0  0  0  0  0  0
    2.9200   -1.1733   -0.1902 H   0  0  0  0  0  0  0  0  0  0  0  0
   -1.2719    2.4493   -0.2938 H   0  0  0  0  0  0  0  0  0  0  0  0
   -2.9070   -1.9102   -0.2883 H   0  0  0  0  0  0  0  0  0  0  0  0
  1  2  1  0
  2  3  2  0
  3  4  1  0
  4  5  2  0
  5  6  1  0
  6  7  2  0
  7  8  1  0
  8  9  2  0
  8 10  1  0
  5 11  1  0
 11 12  2  0
 11 13  1  0
  4 14  1  0
  3 15  1  0
 15 16  2  0
 15 17  1  0
  7  2  1  0
  1 18  1  0
  1 19  1  0
  1 20  1  0
  6 21  1  0
 14 22  1  0
M  CHG  6   8   1  10  -1  11   1  13  -1  15   1  17  -1
M  END
$$$$
