
     RDKit          3D

 25 25  0  0  0  0  0  0  0  0999 V2000
   -2.6977   -0.8458   -0.3117 C   0  0  0  0  0  0  0  0  0  0  0  0
   -1.3156   -0.2733   -0.1113 C   0  0  0  0  0  0  0  0  0  0  0  0
   -0.1777   -1.1001    0.0224 C   0  0  0  0  0  0  0  0  0  0  0  0
   -0.3696   -2.5425   -0.0237 N   0  0  0  0  0  4  0  0  0  0  0  0
   -0.2888   -3.0768   -1.1349 O   0  0  0  0  0  1  0  0  0  0  0  0
   -0.5937   -3.1071    1.0529 O   0  0  0  0  0  0  0  0  0  0  0  0
    1.1399   -0.5995    0.1755 C   0  0  0  0  0  0  0  0  0  0  0  0
    2.3169   -1.5342    0.3326 C   0  0  0  0  0  0  0  0  0  0  0  0
    1.2982    0.8058    0.1306 C   0  0  0  0  0  0  0  0  0  0  0  0
    2.6313    1.4040    0.1570 N   0  0  0  0  0  4  0  0  0  0  0  0
    2.7701    2.4132    0.8639 O   0  0  0  0  0  1  0  0  0  0  0  0
    3.5073    0.9002   -0.5540 O   0  0  0  0  0  0  0  0  0  0  0  0
    0.1968    1.6722    0.0138 C   0  0  0  0  0  0  0  0  0  0  0  0
    0.3158    3.0372   -0.0035 O   0  0  0  0  0  0  0  0  0  0  0  0
   -1.0824    1.1156   -0.1175 C   0  0  0  0  0  0  0  0  0  0  0  0
   -2.2012    2.0245   -0.2807 N   0  0  0  0  0  4  0  0  0  0  0  0
   -2.6053    2.2063   -1.4360 O   0  0  0  0  0  1  0  0  0  0  0  0
   -2.6949    2.4919    0.7532 O   0  0  0  0  0  0  0  0  0  0  0  0
   -2.8326   -1.7856    0.2318 H   0  0  0  0  0  0  0  0  0  0  0  0
   -2.8737   -1.0235   -1.3772 H   0  0  0  0  0  0  0  0  0  0  0  0
   -3.4773   -0.1784    0.0676 H   0  0  0  0  0  0  0  0  0  0  0  0
    2.7623   -1.7452   -0.6444 H   0  0  0  0  0  0  0  0  0  0  0  0
    2.0349   -2.4833    0.7974 H   0  0  0  0  0  0  0  0  0  0  0  0
    3.0751   -1.1087    0.9980 H   0  0  0  0  0  0  0  0  0  0  0  0
    1.1618    3.3331    0.3983 H   0  0  0  0  0  0  0  0  0  0  0  0
  1  2  1  0
  2  3  2  0
  3  4  1  0
  4  5  1  0
  4  6  2  0
  3  7  1  0
  7  8  1  0
  7  9  2  0
  9 10  1  0
 10 11  1  0
 10 12  2  0
  9 13  1  0
 13 14  1  0
 13 15  2  0
 15 16  1  0
 16 17  1  0
 16 18  2  0
 15  2  1  0
  1 19  1  0
  1 20  1  0
  1 21  1  0
  8 22  1  0
  8 23  1  0
  8 24  1  0
 14 25  1  0
M  CHG  6   4   1   5  -1  10   1  11  -1  16   1  17  -1
M  END
$$$$
