
     RDKit          3D

 31 31  0  0  0  0  0  0  0  0999 V2000
    5.2665   -2.1294   -1.0963 O   0  0  0  0  0  1  0  0  0  0  0  0
    4.6759   -1.2488   -1.7363 N   0  0  0  0  0  4  0  0  0  0  0  0
    5.0712   -0.7654   -2.8060 O   0  0  0  0  0  0  0  0  0  0  0  0
    3.4108   -0.7405   -1.1887 C   0  0  0  0  0  0  0  0  0  0  0  0
    2.9021   -1.2837   -0.0039 C   0  0  0  0  0  0  0  0  0  0  0  0
    1.6978   -0.8035    0.5207 C   0  0  0  0  0  0  0  0  0  0  0  0
    0.9813    0.2255   -0.1209 C   0  0  0  0  0  0  0  0  0  0  0  0
   -0.3005    0.7108    0.5291 C   0  0  0  0  0  0  0  0  0  0  0  0
   -1.5150   -0.1557    0.1402 C   0  0  0  0  0  0  0  0  0  0  0  0
   -2.7666   -0.0102    1.0328 C   0  0  0  0  0  0  0  0  0  0  0  0
   -3.8499   -0.9540    0.6213 N   0  0  0  0  0  4  0  0  0  0  0  0
   -4.7743   -1.1973    1.4121 O   0  0  0  0  0  1  0  0  0  0  0  0
   -3.7577   -1.4735   -0.5053 O   0  0  0  0  0  0  0  0  0  0  0  0
   -3.3144    1.3681    0.9669 N   0  0  0  0  0  4  0  0  0  0  0  0
   -2.6276    2.2766    1.4663 O   0  0  0  0  0  1  0  0  0  0  0  0
   -4.3667    1.5737    0.3460 O   0  0  0  0  0  0  0  0  0  0  0  0
   -2.4847   -0.3617    2.4540 N   0  0  0  0  0  4  0  0  0  0  0  0
   -3.0803    0.2296    3.3660 O   0  0  0  0  0  1  0  0  0  0  0  0
   -1.6418   -1.2546    2.6527 O   0  0  0  0  0  0  0  0  0  0  0  0
    1.5149    0.7478   -1.3177 C   0  0  0  0  0  0  0  0  0  0  0  0
    0.8302    1.8085   -2.0524 N   0  0  0  0  0  4  0  0  0  0  0  0
    1.5091    2.7825   -2.3946 O   0  0  0  0  0  1  0  0  0  0  0  0
   -0.3774    1.6513   -2.2824 O   0  0  0  0  0  0  0  0  0  0  0  0
    2.7236    0.2790   -1.8554 C   0  0  0  0  0  0  0  0  0  0  0  0
    3.4302   -2.0775    0.5250 H   0  0  0  0  0  0  0  0  0  0  0  0
    1.3293   -1.2369    1.4509 H   0  0  0  0  0  0  0  0  0  0  0  0
   -0.1450    0.7074    1.6141 H   0  0  0  0  0  0  0  0  0  0  0  0
   -0.4716    1.7615    0.2747 H   0  0  0  0  0  0  0  0  0  0  0  0
   -1.2023   -1.2107    0.1242 H   0  0  0  0  0  0  0  0  0  0  0  0
   -1.7814    0.0752   -0.8995 H   0  0  0  0  0  0  0  0  0  0  0  0
    3.1140    0.7058   -2.7778 H   0  0  0  0  0  0  0  0  0  0  0  0
  1  2  1  0
  2  3  2  0
  2  4  1  0
  4  5  2  0
  5  6  1  0
  6  7  2  0
  7  8  1  0
  8  9  1  0
  9 10  1  0
 10 11  1  0
 11 12  1  0
 11 13  2  0
 10 14  1  0
 14 15  1  0
 14 16  2  0
 10 17  1  0
 17 18  1  0
 17 19  2  0
  7 20  1  0
 20 21  1  0
 21 22  1  0
 21 23  2  0
 20 24  2  0
 24  4  1  0
  5 25  1  0
  6 26  1  0
  8 27  1  0
  8 28  1  0
  9 29  1  0
  9 30  1  0
 24 31  1  0
M  CHG  8   1  -1   2   1  11   1  12  -1  14   1  15  -1  17   1  18  -1
M  CHG  2  21   1  22  -1
M  END
$$$$
