
     RDKit          3D

 37 38  0  0  0  0  0  0  0  0999 V2000
    3.3927    0.4207    2.2054 C   0  0  0  0  0  0  0  0  0  0  0  0
    2.6307    0.1869    0.9243 C   0  0  0  0  0  0  0  0  0  0  0  0
    3.2840   -0.0618   -0.2939 C   0  0  0  0  0  0  0  0  0  0  0  0
    4.7403   -0.1343   -0.3674 N   0  0  0  0  0  4  0  0  0  0  0  0
    5.3032   -0.9325    0.3905 O   0  0  0  0  0  1  0  0  0  0  0  0
    5.2934    0.5994   -1.1944 O   0  0  0  0  0  0  0  0  0  0  0  0
    2.5811   -0.2664   -1.4892 C   0  0  0  0  0  0  0  0  0  0  0  0
    1.1737   -0.2524   -1.4896 C   0  0  0  0  0  0  0  0  0  0  0  0
    0.5053   -0.4943   -2.7887 N   0  0  0  0  0  4  0  0  0  0  0  0
    1.2016   -0.9201   -3.7185 O   0  0  0  0  0  1  0  0  0  0  0  0
   -0.7079   -0.2620   -2.8767 O   0  0  0  0  0  0  0  0  0  0  0  0
    0.4404   -0.0378   -0.2892 C   0  0  0  0  0  0  0  0  0  0  0  0
   -1.0583   -0.0247   -0.2280 C   0  0  0  0  0  0  0  0  0  0  0  0
   -1.8166    1.1752   -0.3821 C   0  0  0  0  0  0  0  0  0  0  0  0
   -1.1676    2.4803   -0.6202 N   0  0  0  0  0  4  0  0  0  0  0  0
   -0.0691    2.4863   -1.1903 O   0  0  0  0  0  1  0  0  0  0  0  0
   -1.7675    3.4907   -0.2357 O   0  0  0  0  0  0  0  0  0  0  0  0
   -3.2255    1.1838   -0.3138 C   0  0  0  0  0  0  0  0  0  0  0  0
   -3.9159   -0.0093   -0.0856 C   0  0  0  0  0  0  0  0  0  0  0  0
   -5.3854   -0.0034   -0.0231 N   0  0  0  0  0  4  0  0  0  0  0  0
   -5.9522   -1.0873    0.1626 O   0  0  0  0  0  1  0  0  0  0  0  0
   -5.9587    1.0836   -0.1638 O   0  0  0  0  0  0  0  0  0  0  0  0
   -3.2200   -1.2086    0.0799 C   0  0  0  0  0  0  0  0  0  0  0  0
   -1.8135   -1.2096    0.0078 C   0  0  0  0  0  0  0  0  0  0  0  0
   -1.1579   -2.5117    0.1931 N   0  0  0  0  0  4  0  0  0  0  0  0
   -0.1614   -2.7531   -0.4989 O   0  0  0  0  0  1  0  0  0  0  0  0
   -1.6495   -3.2764    1.0296 O   0  0  0  0  0  0  0  0  0  0  0  0
    1.2166    0.1678    0.8899 C   0  0  0  0  0  0  0  0  0  0  0  0
    0.4980    0.3489    2.1411 N   0  0  0  0  0  4  0  0  0  0  0  0
   -0.0326    1.4498    2.3212 O   0  0  0  0  0  1  0  0  0  0  0  0
    0.4206   -0.6348    2.8821 O   0  0  0  0  0  0  0  0  0  0  0  0
    2.8372    1.0569    2.9013 H   0  0  0  0  0  0  0  0  0  0  0  0
    3.6055   -0.5347    2.6947 H   0  0  0  0  0  0  0  0  0  0  0  0
    4.3333    0.9496    2.0209 H   0  0  0  0  0  0  0  0  0  0  0  0
    3.1381   -0.4429   -2.4116 H   0  0  0  0  0  0  0  0  0  0  0  0
   -3.7757    2.1177   -0.4428 H   0  0  0  0  0  0  0  0  0  0  0  0
   -3.7605   -2.1398    0.2592 H   0  0  0  0  0  0  0  0  0  0  0  0
  1  2  1  0
  2  3  2  0
  3  4  1  0
  4  5  1  0
  4  6  2  0
  3  7  1  0
  7  8  2  0
  8  9  1  0
  9 10  1  0
  9 11  2  0
  8 12  1  0
 12 13  1  0
 13 14  2  0
 14 15  1  0
 15 16  1  0
 15 17  2  0
 14 18  1  0
 18 19  2  0
 19 20  1  0
 20 21  1  0
 20 22  2  0
 19 23  1  0
 23 24  2  0
 24 25  1  0
 25 26  1  0
 25 27  2  0
 12 28  2  0
 28 29  1  0
 29 30  1  0
 29 31  2  0
 24 13  1  0
 28  2  1  0
  1 32  1  0
  1 33  1  0
  1 34  1  0
  7 35  1  0
 18 36  1  0
 23 37  1  0
M  CHG  8   4   1   5  -1   9   1  10  -1  15   1  16  -1  20   1  21  -1
M  CHG  4  25   1  26  -1  29   1  30  -1
M  END
$$$$
