
     RDKit          3D

 35 36  0  0  0  0  0  0  0  0999 V2000
   -3.8640    0.6485    0.9046 C   0  0  0  0  0  0  0  0  0  0  0  0
   -2.7304    0.2442   -0.0057 C   0  0  0  0  0  0  0  0  0  0  0  0
   -2.9656   -0.3561   -1.2567 C   0  0  0  0  0  0  0  0  0  0  0  0
   -4.3229   -0.6151   -1.7279 N   0  0  0  0  0  4  0  0  0  0  0  0
   -5.0635   -1.2716   -0.9876 O   0  0  0  0  0  1  0  0  0  0  0  0
   -4.6181   -0.1648   -2.8412 O   0  0  0  0  0  0  0  0  0  0  0  0
   -1.9210   -0.7339   -2.1100 C   0  0  0  0  0  0  0  0  0  0  0  0
   -0.5933   -0.5438   -1.6975 C   0  0  0  0  0  0  0  0  0  0  0  0
    0.4497   -0.9688   -2.6316 N   0  0  0  0  0  4  0  0  0  0  0  0
    1.3999   -0.1987   -2.8135 O   0  0  0  0  0  1  0  0  0  0  0  0
    0.2903   -2.0563   -3.1975 O   0  0  0  0  0  0  0  0  0  0  0  0
   -0.2698    0.0061   -0.4358 C   0  0  0  0  0  0  0  0  0  0  0  0
    1.1287    0.1566    0.0487 C   0  0  0  0  0  0  0  0  0  0  0  0
    1.7709    1.3939   -0.1758 C   0  0  0  0  0  0  0  0  0  0  0  0
    3.0790    1.6314    0.2605 C   0  0  0  0  0  0  0  0  0  0  0  0
    3.7769    0.6296    0.9417 C   0  0  0  0  0  0  0  0  0  0  0  0
    5.1527    0.8797    1.3939 N   0  0  0  0  0  4  0  0  0  0  0  0
    5.6101    2.0196    1.2380 O   0  0  0  0  0  1  0  0  0  0  0  0
    5.7687   -0.0669    1.9010 O   0  0  0  0  0  0  0  0  0  0  0  0
    3.1746   -0.6070    1.1957 C   0  0  0  0  0  0  0  0  0  0  0  0
    1.8576   -0.8375    0.7538 C   0  0  0  0  0  0  0  0  0  0  0  0
    1.2664   -2.1477    1.0717 N   0  0  0  0  0  4  0  0  0  0  0  0
    1.7052   -2.7480    2.0599 O   0  0  0  0  0  1  0  0  0  0  0  0
    0.3745   -2.5724    0.3259 O   0  0  0  0  0  0  0  0  0  0  0  0
   -1.3735    0.3930    0.3730 C   0  0  0  0  0  0  0  0  0  0  0  0
   -1.0760    0.9773    1.6706 N   0  0  0  0  0  4  0  0  0  0  0  0
   -1.0577    2.2115    1.7311 O   0  0  0  0  0  1  0  0  0  0  0  0
   -0.8328    0.1894    2.5906 O   0  0  0  0  0  0  0  0  0  0  0  0
   -3.5869    1.4587    1.5843 H   0  0  0  0  0  0  0  0  0  0  0  0
   -4.1865   -0.2098    1.5021 H   0  0  0  0  0  0  0  0  0  0  0  0
   -4.7151    1.0318    0.3322 H   0  0  0  0  0  0  0  0  0  0  0  0
   -2.1403   -1.1848   -3.0794 H   0  0  0  0  0  0  0  0  0  0  0  0
    1.2560    2.1955   -0.7087 H   0  0  0  0  0  0  0  0  0  0  0  0
    3.5360    2.5996    0.0568 H   0  0  0  0  0  0  0  0  0  0  0  0
    3.7201   -1.3832    1.7332 H   0  0  0  0  0  0  0  0  0  0  0  0
  1  2  1  0
  2  3  2  0
  3  4  1  0
  4  5  1  0
  4  6  2  0
  3  7  1  0
  7  8  2  0
  8  9  1  0
  9 10  1  0
  9 11  2  0
  8 12  1  0
 12 13  1  0
 13 14  2  0
 14 15  1  0
 15 16  2  0
 16 17  1  0
 17 18  1  0
 17 19  2  0
 16 20  1  0
 20 21  2  0
 21 22  1  0
 22 23  1  0
 22 24  2  0
 12 25  2  0
 25 26  1  0
 26 27  1  0
 26 28  2  0
 21 13  1  0
 25  2  1  0
  1 29  1  0
  1 30  1  0
  1 31  1  0
  7 32  1  0
 14 33  1  0
 15 34  1  0
 20 35  1  0
M  CHG  8   4   1   5  -1   9   1  10  -1  17   1  18  -1  22   1  23  -1
M  CHG  2  26   1  27  -1
M  END
$$$$
