
     RDKit          3D

 40 41  0  0  0  0  0  0  0  0999 V2000
   -3.8992    0.3705   -0.7507 C   0  0  0  0  0  0  0  0  0  0  0  0
   -3.7017    1.7292   -1.0191 C   0  0  0  0  0  0  0  0  0  0  0  0
   -2.5938    2.4048   -0.4955 C   0  0  0  0  0  0  0  0  0  0  0  0
   -1.6736    1.6914    0.2891 C   0  0  0  0  0  0  0  0  0  0  0  0
   -1.8050    0.3133    0.5782 C   0  0  0  0  0  0  0  0  0  0  0  0
   -2.9569   -0.3137    0.0419 C   0  0  0  0  0  0  0  0  0  0  0  0
   -3.2280   -1.7321    0.2806 N   0  0  0  0  0  4  0  0  0  0  0  0
   -3.3828   -2.4493   -0.7154 O   0  0  0  0  0  0  0  0  0  0  0  0
   -3.2637   -2.1082    1.4575 O   0  0  0  0  0  1  0  0  0  0  0  0
   -0.7613   -0.4421    1.3877 C   0  0  0  0  0  0  0  0  0  0  0  0
    0.0508   -1.5011    0.6034 C   0  0  0  0  0  0  0  0  0  0  0  0
    1.4755   -1.0785    0.2612 C   0  0  0  0  0  0  0  0  0  0  0  0
    1.8526   -0.5858   -1.0137 C   0  0  0  0  0  0  0  0  0  0  0  0
    3.1834   -0.2281   -1.3268 C   0  0  0  0  0  0  0  0  0  0  0  0
    4.1817   -0.3754   -0.3554 C   0  0  0  0  0  0  0  0  0  0  0  0
    3.8678   -0.8713    0.9149 C   0  0  0  0  0  0  0  0  0  0  0  0
    2.5315   -1.2097    1.2062 C   0  0  0  0  0  0  0  0  0  0  0  0
    2.2942   -1.7661    2.5424 N   0  0  0  0  0  4  0  0  0  0  0  0
    1.4941   -1.1699    3.2671 O   0  0  0  0  0  0  0  0  0  0  0  0
    2.9260   -2.7805    2.8479 O   0  0  0  0  0  1  0  0  0  0  0  0
    5.5742   -0.0432   -0.6813 N   0  0  0  0  0  4  0  0  0  0  0  0
    5.7890    0.5472   -1.7525 O   0  0  0  0  0  0  0  0  0  0  0  0
    6.4452   -0.3907    0.1303 O   0  0  0  0  0  1  0  0  0  0  0  0
    0.8875   -0.4863   -2.1137 N   0  0  0  0  0  4  0  0  0  0  0  0
   -0.1734    0.1208   -1.9000 O   0  0  0  0  0  0  0  0  0  0  0  0
    1.2139   -1.0120   -3.1825 O   0  0  0  0  0  1  0  0  0  0  0  0
   -0.5305    2.4442    0.7755 N   0  0  0  0  0  4  0  0  0  0  0  0
    0.3627    2.7174   -0.0460 O   0  0  0  0  0  0  0  0  0  0  0  0
   -0.5430    2.7529    1.9721 O   0  0  0  0  0  1  0  0  0  0  0  0
   -4.6693    2.4584   -1.8601 N   0  0  0  0  0  4  0  0  0  0  0  0
   -4.4860    3.6730   -2.0189 O   0  0  0  0  0  0  0  0  0  0  0  0
   -5.6129    1.8132   -2.3508 O   0  0  0  0  0  1  0  0  0  0  0  0
   -4.7645   -0.1580   -1.1576 H   0  0  0  0  0  0  0  0  0  0  0  0
   -2.4425    3.4667   -0.6958 H   0  0  0  0  0  0  0  0  0  0  0  0
   -0.0760    0.2588    1.8790 H   0  0  0  0  0  0  0  0  0  0  0  0
   -1.2747   -0.9356    2.2225 H   0  0  0  0  0  0  0  0  0  0  0  0
   -0.4784   -1.8462   -0.2943 H   0  0  0  0  0  0  0  0  0  0  0  0
    0.1153   -2.4086    1.2237 H   0  0  0  0  0  0  0  0  0  0  0  0
    3.4298    0.1392   -2.3299 H   0  0  0  0  0  0  0  0  0  0  0  0
    4.6423   -1.0083    1.6744 H   0  0  0  0  0  0  0  0  0  0  0  0
  1  2  2  0
  2  3  1  0
  3  4  2  0
  4  5  1  0
  5  6  2  0
  6  7  1  0
  7  8  2  0
  7  9  1  0
  5 10  1  0
 10 11  1  0
 11 12  1  0
 12 13  2  0
 13 14  1  0
 14 15  2  0
 15 16  1  0
 16 17  2  0
 17 18  1  0
 18 19  2  0
 18 20  1  0
 15 21  1  0
 21 22  2  0
 21 23  1  0
 13 24  1  0
 24 25  2  0
 24 26  1  0
  4 27  1  0
 27 28  2  0
 27 29  1  0
  2 30  1  0
 30 31  2  0
 30 32  1  0
  6  1  1  0
 17 12  1  0
  1 33  1  0
  3 34  1  0
 10 35  1  0
 10 36  1  0
 11 37  1  0
 11 38  1  0
 14 39  1  0
 16 40  1  0
M  CHG  8   7   1   9  -1  18   1  20  -1  21   1  23  -1  24   1  26  -1
M  CHG  4  27   1  29  -1  30   1  32  -1
M  END
$$$$
