
     RDKit          3D

 40 41  0  0  0  0  0  0  0  0999 V2000
    3.9031   -1.4089    1.2851 C   0  0  0  0  0  0  0  0  0  0  0  0
    3.0219   -0.5259    0.4363 C   0  0  0  0  0  0  0  0  0  0  0  0
    1.6176   -0.4892    0.6009 C   0  0  0  0  0  0  0  0  0  0  0  0
    0.7358    0.3315   -0.1637 C   0  0  0  0  0  0  0  0  0  0  0  0
    1.3488    1.1673   -1.1377 C   0  0  0  0  0  0  0  0  0  0  0  0
    2.7447    1.1743   -1.3158 C   0  0  0  0  0  0  0  0  0  0  0  0
    3.5555    0.3471   -0.5263 C   0  0  0  0  0  0  0  0  0  0  0  0
    4.9968    0.4484   -0.7350 N   0  0  0  0  0  4  0  0  0  0  0  0
    5.6907    0.7176    0.2521 O   0  0  0  0  0  0  0  0  0  0  0  0
    5.4061    0.2720   -1.8879 O   0  0  0  0  0  1  0  0  0  0  0  0
    0.5650    2.0852   -1.9947 N   0  0  0  0  0  4  0  0  0  0  0  0
    1.1227    2.5417   -3.0001 O   0  0  0  0  0  0  0  0  0  0  0  0
   -0.5960    2.3521   -1.6568 O   0  0  0  0  0  1  0  0  0  0  0  0
   -0.7445    0.2994    0.0824 C   0  0  0  0  0  0  0  0  0  0  0  0
   -1.3755    1.1117    1.0652 C   0  0  0  0  0  0  0  0  0  0  0  0
   -2.7607    1.0453    1.2929 C   0  0  0  0  0  0  0  0  0  0  0  0
   -3.5508    0.1782    0.5284 C   0  0  0  0  0  0  0  0  0  0  0  0
   -3.0102   -0.6250   -0.4908 C   0  0  0  0  0  0  0  0  0  0  0  0
   -1.6038   -0.5652   -0.6662 C   0  0  0  0  0  0  0  0  0  0  0  0
   -0.9993   -1.4450   -1.6662 N   0  0  0  0  0  4  0  0  0  0  0  0
   -1.1046   -2.6609   -1.4828 O   0  0  0  0  0  0  0  0  0  0  0  0
   -0.4022   -0.8998   -2.6016 O   0  0  0  0  0  1  0  0  0  0  0  0
   -3.8834   -1.5206   -1.3370 C   0  0  0  0  0  0  0  0  0  0  0  0
   -4.9755    0.1393    0.8445 N   0  0  0  0  0  4  0  0  0  0  0  0
   -5.5793    1.2179    0.8260 O   0  0  0  0  0  0  0  0  0  0  0  0
   -5.4600   -0.9633    1.1230 O   0  0  0  0  0  1  0  0  0  0  0  0
   -0.6165    2.0664    1.8984 N   0  0  0  0  0  4  0  0  0  0  0  0
   -1.0995    2.3698    2.9956 O   0  0  0  0  0  0  0  0  0  0  0  0
    0.4496    2.5074    1.4503 O   0  0  0  0  0  1  0  0  0  0  0  0
    1.0260   -1.3255    1.6321 N   0  0  0  0  0  4  0  0  0  0  0  0
    0.8356   -0.7960    2.7310 O   0  0  0  0  0  0  0  0  0  0  0  0
    0.7003   -2.4677    1.2989 O   0  0  0  0  0  1  0  0  0  0  0  0
    4.2384   -0.8609    2.1710 H   0  0  0  0  0  0  0  0  0  0  0  0
    3.3882   -2.3174    1.6105 H   0  0  0  0  0  0  0  0  0  0  0  0
    4.7761   -1.7586    0.7245 H   0  0  0  0  0  0  0  0  0  0  0  0
    3.2096    1.8306   -2.0543 H   0  0  0  0  0  0  0  0  0  0  0  0
   -3.2303    1.6662    2.0585 H   0  0  0  0  0  0  0  0  0  0  0  0
   -4.8827   -1.0953   -1.4751 H   0  0  0  0  0  0  0  0  0  0  0  0
   -3.4831   -1.6377   -2.3491 H   0  0  0  0  0  0  0  0  0  0  0  0
   -3.9745   -2.5066   -0.8713 H   0  0  0  0  0  0  0  0  0  0  0  0
  1  2  1  0
  2  3  2  0
  3  4  1  0
  4  5  2  0
  5  6  1  0
  6  7  2  0
  7  8  1  0
  8  9  2  0
  8 10  1  0
  5 11  1  0
 11 12  2  0
 11 13  1  0
  4 14  1  0
 14 15  2  0
 15 16  1  0
 16 17  2  0
 17 18  1  0
 18 19  2  0
 19 20  1  0
 20 21  2  0
 20 22  1  0
 18 23  1  0
 17 24  1  0
 24 25  2  0
 24 26  1  0
 15 27  1  0
 27 28  2  0
 27 29  1  0
  3 30  1  0
 30 31  2  0
 30 32  1  0
  7  2  1  0
 19 14  1  0
  1 33  1  0
  1 34  1  0
  1 35  1  0
  6 36  1  0
 16 37  1  0
 23 38  1  0
 23 39  1  0
 23 40  1  0
M  CHG  8   8   1  10  -1  11   1  13  -1  20   1  22  -1  24   1  26  -1
M  CHG  4  27   1  29  -1  30   1  32  -1
M  END
$$$$
