
     RDKit          3D

 18 18  0  0  0  0  0  0  0  0999 V2000
    0.2880   -1.3379    0.3018 C   0  0  0  0  0  0  0  0  0  0  0  0
    1.3186   -0.3977    0.2651 C   0  0  0  0  0  0  0  0  0  0  0  0
    1.0416    0.9369   -0.0344 C   0  0  0  0  0  0  0  0  0  0  0  0
   -0.2898    1.2990   -0.2945 C   0  0  0  0  0  0  0  0  0  0  0  0
   -1.3488    0.4068   -0.2712 N   0  0  0  0  0  4  0  0  0  0  0  0
   -1.0197   -0.9040    0.0311 C   0  0  0  0  0  0  0  0  0  0  0  0
   -2.0908   -1.8520    0.0635 N   0  0  0  0  0  4  0  0  0  0  0  0
   -2.3121   -2.4699   -0.9839 O   0  0  0  0  0  0  0  0  0  0  0  0
   -2.6177   -2.0513    1.1639 O   0  0  0  0  0  1  0  0  0  0  0  0
   -2.5339    0.7642   -0.5095 O   0  0  0  0  0  1  0  0  0  0  0  0
   -0.5952    2.6621   -0.6036 N   0  0  0  0  0  4  0  0  0  0  0  0
   -0.5024    2.9923   -1.7912 O   0  0  0  0  0  0  0  0  0  0  0  0
   -0.8080    3.4110    0.3565 O   0  0  0  0  0  1  0  0  0  0  0  0
    2.7009   -0.8146    0.5431 N   0  0  0  0  0  4  0  0  0  0  0  0
    2.8908   -2.0080    0.8027 O   0  0  0  0  0  0  0  0  0  0  0  0
    3.5753    0.0578    0.4974 O   0  0  0  0  0  1  0  0  0  0  0  0
    0.4760   -2.3864    0.5329 H   0  0  0  0  0  0  0  0  0  0  0  0
    1.8272    1.6917   -0.0698 H   0  0  0  0  0  0  0  0  0  0  0  0
  1  2  2  0
  2  3  1  0
  3  4  2  0
  4  5  1  0
  5  6  2  0
  6  7  1  0
  7  8  2  0
  7  9  1  0
  5 10  1  0
  4 11  1  0
 11 12  2  0
 11 13  1  0
  2 14  1  0
 14 15  2  0
 14 16  1  0
  6  1  1  0
  1 17  1  0
  3 18  1  0
M  CHG  8   5   1   7   1   9  -1  10  -1  11   1  13  -1  14   1  16  -1
M  END
$$$$
