
     RDKit          3D

 30 31  0  0  0  0  0  0  0  0999 V2000
   -6.2934    1.6342   -0.8292 O   0  0  0  0  0  1  0  0  0  0  0  0
   -5.7683    0.5154   -0.7713 N   0  0  0  0  0  4  0  0  0  0  0  0
   -6.3459   -0.5528   -1.0078 O   0  0  0  0  0  0  0  0  0  0  0  0
   -4.3638    0.4552   -0.3897 C   0  0  0  0  0  0  0  0  0  0  0  0
   -3.7070   -0.7679   -0.3622 C   0  0  0  0  0  0  0  0  0  0  0  0
   -2.3976   -0.9009   -0.0195 N   0  0  0  0  0  0  0  0  0  0  0  0
   -1.7043    0.2249    0.3063 C   0  0  0  0  0  0  0  0  0  0  0  0
   -0.3507    0.0220    0.6167 N   0  0  0  0  0  0  0  0  0  0  0  0
    0.3235    0.0027   -0.4380 N   0  0  0  0  0  0  0  0  0  0  0  0
    1.6784   -0.2208   -0.1403 C   0  0  0  0  0  0  0  0  0  0  0  0
    2.3123    0.7836    0.5279 N   0  0  0  0  0  0  0  0  0  0  0  0
    3.6191    0.6084    0.8595 C   0  0  0  0  0  0  0  0  0  0  0  0
    4.3344   -0.5381    0.5416 C   0  0  0  0  0  0  0  0  0  0  0  0
    5.7335   -0.6509    0.9305 N   0  0  0  0  0  4  0  0  0  0  0  0
    6.2264    0.2795    1.5800 O   0  0  0  0  0  1  0  0  0  0  0  0
    6.3395   -1.6722    0.5813 O   0  0  0  0  0  0  0  0  0  0  0  0
    3.6966   -1.5646   -0.1573 C   0  0  0  0  0  0  0  0  0  0  0  0
    2.3527   -1.3781   -0.5017 C   0  0  0  0  0  0  0  0  0  0  0  0
    1.6613   -2.4057   -1.2341 N   0  0  0  0  0  4  0  0  0  0  0  0
    1.1117   -2.0804   -2.2930 O   0  0  0  0  0  1  0  0  0  0  0  0
    1.7223   -3.5526   -0.7733 O   0  0  0  0  0  0  0  0  0  0  0  0
   -2.3180    1.4688    0.3167 C   0  0  0  0  0  0  0  0  0  0  0  0
   -1.5605    2.6302    0.6950 N   0  0  0  0  0  4  0  0  0  0  0  0
   -1.0549    2.6360    1.8233 O   0  0  0  0  0  1  0  0  0  0  0  0
   -1.5270    3.5601   -0.1208 O   0  0  0  0  0  0  0  0  0  0  0  0
   -3.6624    1.6112   -0.0435 C   0  0  0  0  0  0  0  0  0  0  0  0
   -4.2008   -1.7040   -0.6172 H   0  0  0  0  0  0  0  0  0  0  0  0
    4.0606    1.4455    1.3974 H   0  0  0  0  0  0  0  0  0  0  0  0
    4.2187   -2.4795   -0.4310 H   0  0  0  0  0  0  0  0  0  0  0  0
   -4.1364    2.5909   -0.0464 H   0  0  0  0  0  0  0  0  0  0  0  0
  1  2  1  0
  2  3  2  0
  2  4  1  0
  4  5  2  0
  5  6  1  0
  6  7  2  0
  7  8  1  0
  8  9  2  0
  9 10  1  0
 10 11  2  0
 11 12  1  0
 12 13  2  0
 13 14  1  0
 14 15  1  0
 14 16  2  0
 13 17  1  0
 17 18  2  0
 18 19  1  0
 19 20  1  0
 19 21  2  0
  7 22  1  0
 22 23  1  0
 23 24  1  0
 23 25  2  0
 22 26  2  0
 18 10  1  0
 26  4  1  0
  5 27  1  0
 12 28  1  0
 17 29  1  0
 26 30  1  0
M  CHG  8   1  -1   2   1  14   1  15  -1  19   1  20  -1  23   1  24  -1
M  END
$$$$
