
     RDKit          3D

 51 53  0  0  0  0  0  0  0  0999 V2000
   -3.9384   -3.9332   -2.5199 O   0  0  0  0  0  1  0  0  0  0  0  0
   -3.6213   -2.7776   -2.8266 N   0  0  0  0  0  4  0  0  0  0  0  0
   -3.5349   -2.3464   -3.9835 O   0  0  0  0  0  0  0  0  0  0  0  0
   -3.3171   -1.8413   -1.7347 C   0  0  0  0  0  0  0  0  0  0  0  0
   -3.3452   -2.2833   -0.4084 C   0  0  0  0  0  0  0  0  0  0  0  0
   -3.0312   -1.3797    0.6293 C   0  0  0  0  0  0  0  0  0  0  0  0
   -3.0780   -1.9180    1.9850 N   0  0  0  0  0  4  0  0  0  0  0  0
   -4.0727   -2.5906    2.2812 O   0  0  0  0  0  1  0  0  0  0  0  0
   -2.1202   -1.6793    2.7313 O   0  0  0  0  0  0  0  0  0  0  0  0
   -2.6952   -0.0276    0.3823 C   0  0  0  0  0  0  0  0  0  0  0  0
   -2.3618    0.9077    1.4063 N   0  0  0  0  0  0  0  0  0  0  0  0
   -1.0756    0.9843    2.0409 C   0  0  0  0  0  0  0  0  0  0  0  0
    0.0785    0.8716    1.2409 C   0  0  0  0  0  0  0  0  0  0  0  0
    1.3843    0.8558    1.7631 C   0  0  0  0  0  0  0  0  0  0  0  0
    2.4961    0.7678    0.8801 N   0  0  0  0  0  0  0  0  0  0  0  0
    2.5672    0.4173   -0.4901 C   0  0  0  0  0  0  0  0  0  0  0  0
    3.3300    1.2089   -1.3744 C   0  0  0  0  0  0  0  0  0  0  0  0
    3.9745    2.4055   -0.8761 N   0  0  0  0  0  4  0  0  0  0  0  0
    3.2743    3.4180   -0.7743 O   0  0  0  0  0  1  0  0  0  0  0  0
    5.1787    2.3125   -0.6154 O   0  0  0  0  0  0  0  0  0  0  0  0
    3.5073    0.9167   -2.7372 C   0  0  0  0  0  0  0  0  0  0  0  0
    2.9022   -0.2286   -3.2555 C   0  0  0  0  0  0  0  0  0  0  0  0
    3.0714   -0.5690   -4.6759 N   0  0  0  0  0  4  0  0  0  0  0  0
    2.5664   -1.6290   -5.0686 O   0  0  0  0  0  1  0  0  0  0  0  0
    3.7085    0.2208   -5.3799 O   0  0  0  0  0  0  0  0  0  0  0  0
    2.1584   -1.0749   -2.4241 C   0  0  0  0  0  0  0  0  0  0  0  0
    2.0225   -0.7522   -1.0595 C   0  0  0  0  0  0  0  0  0  0  0  0
    1.3042   -1.7144   -0.2415 N   0  0  0  0  0  4  0  0  0  0  0  0
    1.9167   -2.2315    0.6986 O   0  0  0  0  0  1  0  0  0  0  0  0
    0.1276   -1.9443   -0.5613 O   0  0  0  0  0  0  0  0  0  0  0  0
    1.4886    1.0781    3.1541 C   0  0  0  0  0  0  0  0  0  0  0  0
    2.8488    1.1227    3.7636 N   0  0  0  0  0  4  0  0  0  0  0  0
    3.7916    0.6186    3.1274 O   0  0  0  0  0  1  0  0  0  0  0  0
    2.9585    1.6571    4.8740 O   0  0  0  0  0  0  0  0  0  0  0  0
    0.3970    1.2660    3.9565 N   0  0  0  0  0  0  0  0  0  0  0  0
   -0.8582    1.2154    3.4168 C   0  0  0  0  0  0  0  0  0  0  0  0
   -2.0383    1.3921    4.3143 N   0  0  0  0  0  4  0  0  0  0  0  0
   -1.8185    1.7512    5.4794 O   0  0  0  0  0  1  0  0  0  0  0  0
   -3.1711    1.1773    3.8471 O   0  0  0  0  0  0  0  0  0  0  0  0
   -2.6933    0.3585   -0.9731 C   0  0  0  0  0  0  0  0  0  0  0  0
   -2.3423    1.7137   -1.3400 N   0  0  0  0  0  4  0  0  0  0  0  0
   -1.2088    1.8747   -1.8156 O   0  0  0  0  0  1  0  0  0  0  0  0
   -3.2143    2.5790   -1.2054 O   0  0  0  0  0  0  0  0  0  0  0  0
   -2.9937   -0.5167   -2.0308 C   0  0  0  0  0  0  0  0  0  0  0  0
   -3.5943   -3.3191   -0.1750 H   0  0  0  0  0  0  0  0  0  0  0  0
   -3.0971    0.9025    2.1360 H   0  0  0  0  0  0  0  0  0  0  0  0
   -0.0469    0.8029    0.1659 H   0  0  0  0  0  0  0  0  0  0  0  0
    3.3697    0.5286    1.3807 H   0  0  0  0  0  0  0  0  0  0  0  0
    4.1085    1.5723   -3.3635 H   0  0  0  0  0  0  0  0  0  0  0  0
    1.7048   -1.9849   -2.8182 H   0  0  0  0  0  0  0  0  0  0  0  0
   -2.9679   -0.1561   -3.0589 H   0  0  0  0  0  0  0  0  0  0  0  0
  1  2  1  0
  2  3  2  0
  2  4  1  0
  4  5  2  0
  5  6  1  0
  6  7  1  0
  7  8  1  0
  7  9  2  0
  6 10  2  0
 10 11  1  0
 11 12  1  0
 12 13  2  0
 13 14  1  0
 14 15  1  0
 15 16  1  0
 16 17  2  0
 17 18  1  0
 18 19  1  0
 18 20  2  0
 17 21  1  0
 21 22  2  0
 22 23  1  0
 23 24  1  0
 23 25  2  0
 22 26  1  0
 26 27  2  0
 27 28  1  0
 28 29  1  0
 28 30  2  0
 14 31  2  0
 31 32  1  0
 32 33  1  0
 32 34  2  0
 31 35  1  0
 35 36  2  0
 36 37  1  0
 37 38  1  0
 37 39  2  0
 10 40  1  0
 40 41  1  0
 41 42  1  0
 41 43  2  0
 40 44  2  0
 27 16  1  0
 36 12  1  0
 44  4  1  0
  5 45  1  0
 11 46  1  0
 13 47  1  0
 15 48  1  0
 21 49  1  0
 26 50  1  0
 44 51  1  0
M  CHG  8   1  -1   2   1   7   1   8  -1  18   1  19  -1  23   1  24  -1
M  CHG  8  28   1  29  -1  32   1  33  -1  37   1  38  -1  41   1  42  -1
M  END
$$$$
