
     RDKit          3D

 27 28  0  0  0  0  0  0  0  0999 V2000
   -4.7406   -0.8785    1.7787 O   0  0  0  0  0  1  0  0  0  0  0  0
   -4.3875   -0.1007    0.8845 N   0  0  0  0  0  4  0  0  0  0  0  0
   -5.1469    0.6091    0.2145 O   0  0  0  0  0  0  0  0  0  0  0  0
   -2.9490   -0.0119    0.5950 C   0  0  0  0  0  0  0  0  0  0  0  0
   -2.0549   -0.8676    1.2468 C   0  0  0  0  0  0  0  0  0  0  0  0
   -0.6797   -0.7685    0.9643 C   0  0  0  0  0  0  0  0  0  0  0  0
    0.1933   -1.5792    1.7976 N   0  0  0  0  0  4  0  0  0  0  0  0
    0.0645   -2.8039    1.7078 O   0  0  0  0  0  1  0  0  0  0  0  0
    0.9820   -0.9714    2.5285 O   0  0  0  0  0  0  0  0  0  0  0  0
   -0.1676    0.1606    0.0357 C   0  0  0  0  0  0  0  0  0  0  0  0
    1.2265    0.2436   -0.2455 N   0  0  0  0  0  0  0  0  0  0  0  0
    1.9806    1.3910   -0.3885 C   0  0  0  0  0  0  0  0  0  0  0  0
    3.2448    1.1345   -0.6400 N   0  0  0  0  0  0  0  0  0  0  0  0
    3.3281   -0.2375   -0.6652 C   0  0  0  0  0  0  0  0  0  0  0  0
    4.5758   -0.9181   -0.9370 N   0  0  0  0  0  4  0  0  0  0  0  0
    4.5263   -2.1559   -0.9900 O   0  0  0  0  0  1  0  0  0  0  0  0
    5.5892   -0.2267   -1.0969 O   0  0  0  0  0  0  0  0  0  0  0  0
    2.0954   -0.8099   -0.4221 C   0  0  0  0  0  0  0  0  0  0  0  0
   -1.1043    0.9990   -0.6017 C   0  0  0  0  0  0  0  0  0  0  0  0
   -0.7233    1.8851   -1.6880 N   0  0  0  0  0  4  0  0  0  0  0  0
   -0.9165    3.0914   -1.5107 O   0  0  0  0  0  1  0  0  0  0  0  0
   -0.2384    1.3529   -2.6908 O   0  0  0  0  0  0  0  0  0  0  0  0
   -2.4833    0.9280   -0.3304 C   0  0  0  0  0  0  0  0  0  0  0  0
   -2.4098   -1.5901    1.9841 H   0  0  0  0  0  0  0  0  0  0  0  0
    1.5768    2.3895   -0.2662 H   0  0  0  0  0  0  0  0  0  0  0  0
    1.7964   -1.8498   -0.4074 H   0  0  0  0  0  0  0  0  0  0  0  0
   -3.1778    1.5850   -0.8573 H   0  0  0  0  0  0  0  0  0  0  0  0
  1  2  1  0
  2  3  2  0
  2  4  1  0
  4  5  2  0
  5  6  1  0
  6  7  1  0
  7  8  1  0
  7  9  2  0
  6 10  2  0
 10 11  1  0
 11 12  1  0
 12 13  2  0
 13 14  1  0
 14 15  1  0
 15 16  1  0
 15 17  2  0
 14 18  2  0
 10 19  1  0
 19 20  1  0
 20 21  1  0
 20 22  2  0
 19 23  2  0
 18 11  1  0
 23  4  1  0
  5 24  1  0
 12 25  1  0
 18 26  1  0
 23 27  1  0
M  CHG  8   1  -1   2   1   7   1   8  -1  15   1  16  -1  20   1  21  -1
M  END
$$$$
