
     RDKit          3D

 34 35  0  0  0  0  0  0  0  0999 V2000
   -4.2204    1.7205   -0.3052 C   0  0  0  0  0  0  0  0  0  0  0  0
   -3.2863    0.6365   -0.0777 N   0  0  0  0  0  0  0  0  0  0  0  0
   -3.7027   -0.6180   -0.3635 N   0  0  0  0  0  0  0  0  0  0  0  0
   -2.6129   -1.3749   -0.1531 C   0  0  0  0  0  0  0  0  0  0  0  0
   -2.7006   -2.8076   -0.3806 N   0  0  0  0  0  4  0  0  0  0  0  0
   -1.6925   -3.4659   -0.0749 O   0  0  0  0  0  1  0  0  0  0  0  0
   -3.7495   -3.2756   -0.8432 O   0  0  0  0  0  0  0  0  0  0  0  0
   -1.4877   -0.6088    0.2682 C   0  0  0  0  0  0  0  0  0  0  0  0
   -0.2464   -1.0935    0.5647 N   0  0  0  0  0  0  0  0  0  0  0  0
    1.0455   -0.6061    0.2118 C   0  0  0  0  0  0  0  0  0  0  0  0
    2.1375   -0.7817    1.0964 C   0  0  0  0  0  0  0  0  0  0  0  0
    1.9649   -1.5449    2.3309 N   0  0  0  0  0  4  0  0  0  0  0  0
    1.2804   -2.5756    2.2657 O   0  0  0  0  0  1  0  0  0  0  0  0
    2.5328   -1.1217    3.3449 O   0  0  0  0  0  0  0  0  0  0  0  0
    3.4129   -0.2367    0.8521 C   0  0  0  0  0  0  0  0  0  0  0  0
    3.6265    0.5007   -0.3165 C   0  0  0  0  0  0  0  0  0  0  0  0
    4.9523    1.0745   -0.5865 N   0  0  0  0  0  4  0  0  0  0  0  0
    5.0899    1.7248   -1.6302 O   0  0  0  0  0  1  0  0  0  0  0  0
    5.8463    0.8615    0.2416 O   0  0  0  0  0  0  0  0  0  0  0  0
    2.5939    0.6775   -1.2406 C   0  0  0  0  0  0  0  0  0  0  0  0
    1.3331    0.1191   -0.9661 C   0  0  0  0  0  0  0  0  0  0  0  0
    0.3349    0.2581   -2.0080 N   0  0  0  0  0  4  0  0  0  0  0  0
   -0.0593    1.4030   -2.2617 O   0  0  0  0  0  1  0  0  0  0  0  0
   -0.0516   -0.7802   -2.5579 O   0  0  0  0  0  0  0  0  0  0  0  0
   -1.9927    0.6751    0.3766 C   0  0  0  0  0  0  0  0  0  0  0  0
   -1.4151    1.8729    0.8952 N   0  0  0  0  0  4  0  0  0  0  0  0
   -0.1831    1.9191    0.9755 O   0  0  0  0  0  1  0  0  0  0  0  0
   -2.1850    2.7700    1.2512 O   0  0  0  0  0  0  0  0  0  0  0  0
   -5.0341    1.3642   -0.9436 H   0  0  0  0  0  0  0  0  0  0  0  0
   -3.7032    2.5357   -0.8166 H   0  0  0  0  0  0  0  0  0  0  0  0
   -4.6235    2.0375    0.6592 H   0  0  0  0  0  0  0  0  0  0  0  0
   -0.1792   -2.1049    0.7859 H   0  0  0  0  0  0  0  0  0  0  0  0
    4.2192   -0.3869    1.5712 H   0  0  0  0  0  0  0  0  0  0  0  0
    2.7555    1.2322   -2.1653 H   0  0  0  0  0  0  0  0  0  0  0  0
  1  2  1  0
  2  3  1  0
  3  4  2  0
  4  5  1  0
  5  6  1  0
  5  7  2  0
  4  8  1  0
  8  9  1  0
  9 10  1  0
 10 11  2  0
 11 12  1  0
 12 13  1  0
 12 14  2  0
 11 15  1  0
 15 16  2  0
 16 17  1  0
 17 18  1  0
 17 19  2  0
 16 20  1  0
 20 21  2  0
 21 22  1  0
 22 23  1  0
 22 24  2  0
  8 25  2  0
 25 26  1  0
 26 27  1  0
 26 28  2  0
 21 10  1  0
 25  2  1  0
  1 29  1  0
  1 30  1  0
  1 31  1  0
  9 32  1  0
 15 33  1  0
 20 34  1  0
M  CHG  8   5   1   6  -1  12   1  13  -1  17   1  18  -1  22   1  23  -1
M  CHG  2  26   1  27  -1
M  END
$$$$
