
     RDKit          3D

 26 28  0  0  0  0  0  0  0  0999 V2000
   -3.3386   -3.3912   -0.5292 O   0  0  0  0  0  1  0  0  0  0  0  0
   -3.9708   -2.3348   -0.5766 N   0  0  0  0  0  4  0  0  0  0  0  0
   -5.1826   -2.2066   -0.7337 O   0  0  0  0  0  0  0  0  0  0  0  0
   -3.1750   -1.2578   -0.4330 N   0  0  0  0  0  0  0  0  0  0  0  0
   -3.6251    0.0223   -0.4483 C   0  0  0  0  0  0  0  0  0  0  0  0
   -4.8676    0.4866   -0.5977 N   0  0  0  0  0  0  0  0  0  0  0  0
   -4.7829    1.8630   -0.5384 O   0  0  0  0  0  0  0  0  0  0  0  0
   -3.4745    2.2733   -0.3497 N   0  0  0  0  0  0  0  0  0  0  0  0
   -2.7572    1.1450   -0.2935 C   0  0  0  0  0  0  0  0  0  0  0  0
   -1.3196    1.1642   -0.1012 C   0  0  0  0  0  0  0  0  0  0  0  0
   -0.6797    0.0366   -0.0552 N   0  0  0  0  0  0  0  0  0  0  0  0
    0.7100    0.1130    0.1327 O   0  0  0  0  0  0  0  0  0  0  0  0
    1.2579    1.3558    0.2490 C   0  0  0  0  0  0  0  0  0  0  0  0
    2.6990    1.3409    0.4406 C   0  0  0  0  0  0  0  0  0  0  0  0
    3.3867    2.4828    0.5721 N   0  0  0  0  0  0  0  0  0  0  0  0
    4.7045    2.1046    0.7346 O   0  0  0  0  0  0  0  0  0  0  0  0
    4.8317    0.7330    0.7037 N   0  0  0  0  0  0  0  0  0  0  0  0
    3.6057    0.2364    0.5229 C   0  0  0  0  0  0  0  0  0  0  0  0
    3.2207   -1.0629    0.4263 N   0  0  0  0  0  0  0  0  0  0  0  0
    4.0769   -2.1043    0.5041 N   0  0  0  0  0  4  0  0  0  0  0  0
    5.2801   -1.9243    0.6707 O   0  0  0  0  0  1  0  0  0  0  0  0
    3.4983   -3.1859    0.3893 O   0  0  0  0  0  0  0  0  0  0  0  0
    0.6139    2.4743    0.2022 N   0  0  0  0  0  0  0  0  0  0  0  0
   -0.7775    2.4047    0.0143 O   0  0  0  0  0  0  0  0  0  0  0  0
   -2.1888   -1.4490   -0.3082 H   0  0  0  0  0  0  0  0  0  0  0  0
    2.2544   -1.3199    0.2885 H   0  0  0  0  0  0  0  0  0  0  0  0
  1  2  1  0
  2  3  2  0
  2  4  1  0
  4  5  1  0
  5  6  2  0
  6  7  1  0
  7  8  1  0
  8  9  2  0
  9 10  1  0
 10 11  2  0
 11 12  1  0
 12 13  1  0
 13 14  1  0
 14 15  2  0
 15 16  1  0
 16 17  1  0
 17 18  2  0
 18 19  1  0
 19 20  1  0
 20 21  1  0
 20 22  2  0
 13 23  2  0
 23 24  1  0
  9  5  1  0
 18 14  1  0
 24 10  1  0
  4 25  1  0
 19 26  1  0
M  CHG  4   1  -1   2   1  20   1  21  -1
M  END
$$$$
