
     RDKit          3D

 28 28  0  0  0  0  0  0  0  0999 V2000
    3.2387    1.0493    0.6663 C   0  0  0  0  0  0  0  0  0  0  0  0
    2.8928   -0.3307    0.1396 C   0  0  0  0  0  0  0  0  0  0  0  0
    1.7989   -0.8347    0.9073 O   0  0  0  0  0  0  0  0  0  0  0  0
    1.3100   -1.9842    0.2843 N   0  0  0  0  0  0  0  0  0  0  0  0
    2.0428   -3.1008    0.2335 N   0  0  0  0  0  0  0  0  0  0  0  0
    1.3027   -3.9584   -0.4540 N   0  0  0  0  0  0  0  0  0  0  0  0
    0.0988   -3.3974   -0.8192 N   0  0  0  0  0  0  0  0  0  0  0  0
    0.0871   -2.1702   -0.3391 C   0  0  0  0  0  0  0  0  0  0  0  0
   -0.9464   -1.2807   -0.4548 N   0  0  0  0  0  0  0  0  0  0  0  0
   -0.7803    0.1729   -0.2513 C   0  0  0  0  0  0  0  0  0  0  0  0
   -2.0649    1.0083   -0.2052 C   0  0  0  0  0  0  0  0  0  0  0  0
   -2.7629    1.0388   -1.5096 N   0  0  0  0  0  4  0  0  0  0  0  0
   -2.6179    0.0564   -2.2565 O   0  0  0  0  0  1  0  0  0  0  0  0
   -3.4378    2.0316   -1.8186 O   0  0  0  0  0  0  0  0  0  0  0  0
   -2.9790    0.5023    0.8373 N   0  0  0  0  0  4  0  0  0  0  0  0
   -4.1351    0.1784    0.5291 O   0  0  0  0  0  1  0  0  0  0  0  0
   -2.5160    0.3872    1.9846 O   0  0  0  0  0  0  0  0  0  0  0  0
   -1.7328    2.4185    0.1264 N   0  0  0  0  0  4  0  0  0  0  0  0
   -0.6517    2.8551   -0.3041 O   0  0  0  0  0  1  0  0  0  0  0  0
   -2.5232    3.0954    0.7997 O   0  0  0  0  0  0  0  0  0  0  0  0
    4.0770    1.4798    0.1115 H   0  0  0  0  0  0  0  0  0  0  0  0
    3.5036    1.0020    1.7277 H   0  0  0  0  0  0  0  0  0  0  0  0
    2.3772    1.7203    0.5823 H   0  0  0  0  0  0  0  0  0  0  0  0
    3.7601   -0.9919    0.2463 H   0  0  0  0  0  0  0  0  0  0  0  0
    2.6191   -0.2565   -0.9200 H   0  0  0  0  0  0  0  0  0  0  0  0
   -1.5961   -1.5533   -1.2051 H   0  0  0  0  0  0  0  0  0  0  0  0
   -0.2481    0.3288    0.6947 H   0  0  0  0  0  0  0  0  0  0  0  0
   -0.1163    0.5337   -1.0492 H   0  0  0  0  0  0  0  0  0  0  0  0
  1  2  1  0
  2  3  1  0
  3  4  1  0
  4  5  1  0
  5  6  2  0
  6  7  1  0
  7  8  2  0
  8  9  1  0
  9 10  1  0
 10 11  1  0
 11 12  1  0
 12 13  1  0
 12 14  2  0
 11 15  1  0
 15 16  1  0
 15 17  2  0
 11 18  1  0
 18 19  1  0
 18 20  2  0
  8  4  1  0
  1 21  1  0
  1 22  1  0
  1 23  1  0
  2 24  1  0
  2 25  1  0
  9 26  1  0
 10 27  1  0
 10 28  1  0
M  CHG  6  12   1  13  -1  15   1  16  -1  18   1  19  -1
M  END
$$$$
