
     RDKit          3D

 14 15  0  0  0  0  0  0  0  0999 V2000
   -1.5618   -1.3613   -0.0622 N   0  0  0  0  0  0  0  0  0  0  0  0
   -0.7926   -0.1716   -0.0179 C   0  0  0  0  0  0  0  0  0  0  0  0
    0.5817   -0.1633   -0.0917 C   0  0  0  0  0  0  0  0  0  0  0  0
    1.5724   -1.0781   -0.2463 N   0  0  0  0  0  0  0  0  0  0  0  0
    2.7834   -0.4915   -0.2498 N   0  0  0  0  0  0  0  0  0  0  0  0
    2.5934    0.8211   -0.1256 N   0  0  0  0  0  0  0  0  0  0  0  0
    1.2508    1.0408   -0.0366 C   0  0  0  0  0  0  0  0  0  0  0  0
    0.5965    2.2158    0.0879 N   0  0  0  0  0  0  0  0  0  0  0  0
   -0.6878    2.2352    0.1525 N   0  0  0  0  0  0  0  0  0  0  0  0
   -1.4043    1.0906    0.1013 N   0  0  0  0  0  4  0  0  0  0  0  0
   -2.6692    1.1790    0.2097 O   0  0  0  0  0  1  0  0  0  0  0  0
   -2.5464   -1.1182    0.1121 H   0  0  0  0  0  0  0  0  0  0  0  0
   -1.2305   -2.1147    0.5300 H   0  0  0  0  0  0  0  0  0  0  0  0
    1.5144   -2.0838   -0.3635 H   0  0  0  0  0  0  0  0  0  0  0  0
  1  2  1  0
  2  3  2  0
  3  4  1  0
  4  5  1  0
  5  6  2  0
  6  7  1  0
  7  8  2  0
  8  9  1  0
  9 10  2  0
 10 11  1  0
  7  3  1  0
 10  2  1  0
  1 12  1  0
  1 13  1  0
  4 14  1  0
M  CHG  2  10   1  11  -1
M  END
$$$$
