
     RDKit          3D

 15 16  0  0  0  0  0  0  0  0999 V2000
   -1.9069   -1.3772    0.6812 N   0  0  0  0  0  0  0  0  0  0  0  0
   -1.1045   -0.2424    0.4036 C   0  0  0  0  0  0  0  0  0  0  0  0
    0.2193   -0.3426   -0.0134 C   0  0  0  0  0  0  0  0  0  0  0  0
    1.0496   -1.4113   -0.2708 N   0  0  0  0  0  0  0  0  0  0  0  0
    2.1953   -0.8689   -0.6313 C   0  0  0  0  0  0  0  0  0  0  0  0
    2.1365    0.5001   -0.6237 N   0  0  0  0  0  0  0  0  0  0  0  0
    0.8757    0.8453   -0.2366 C   0  0  0  0  0  0  0  0  0  0  0  0
    0.3629    2.0694   -0.0975 N   0  0  0  0  0  0  0  0  0  0  0  0
   -0.8586    2.1659    0.2672 N   0  0  0  0  0  0  0  0  0  0  0  0
   -1.6065    1.0614    0.5190 N   0  0  0  0  0  4  0  0  0  0  0  0
   -2.8258    1.2592    0.8377 O   0  0  0  0  0  1  0  0  0  0  0  0
   -2.9026   -1.1562    0.6993 H   0  0  0  0  0  0  0  0  0  0  0  0
   -1.6062   -2.2368    0.2331 H   0  0  0  0  0  0  0  0  0  0  0  0
    3.0932   -1.4083   -0.9065 H   0  0  0  0  0  0  0  0  0  0  0  0
    2.8787    1.1423   -0.8613 H   0  0  0  0  0  0  0  0  0  0  0  0
  1  2  1  0
  2  3  2  0
  3  4  1  0
  4  5  2  0
  5  6  1  0
  6  7  1  0
  7  8  2  0
  8  9  1  0
  9 10  2  0
 10 11  1  0
  7  3  1  0
 10  2  1  0
  1 12  1  0
  1 13  1  0
  5 14  1  0
  6 15  1  0
M  CHG  2  10   1  11  -1
M  END
$$$$
