
     RDKit          3D

 30 33  0  0  0  0  0  0  0  0999 V2000
   -6.9336   -0.9442   -2.9295 C   0  0  0  0  0  0  0  0  0  0  0  0
   -5.8189   -1.1129   -3.6527 N   0  0  0  0  0  0  0  0  0  0  0  0
   -4.6217   -0.8970   -3.0396 N   0  0  0  0  0  0  0  0  0  0  0  0
   -4.5865   -0.5206   -1.7434 C   0  0  0  0  0  0  0  0  0  0  0  0
   -3.3237   -0.3075   -1.1887 N   0  0  0  0  0  0  0  0  0  0  0  0
   -2.9939    0.1208    0.0515 C   0  0  0  0  0  0  0  0  0  0  0  0
   -3.8040    0.4358    1.0663 N   0  0  0  0  0  0  0  0  0  0  0  0
   -2.9732    0.8248    2.1103 O   0  0  0  0  0  0  0  0  0  0  0  0
   -1.6293    0.7502    1.7477 N   0  0  0  0  0  0  0  0  0  0  0  0
   -1.6632    0.3136    0.4893 C   0  0  0  0  0  0  0  0  0  0  0  0
   -0.5341    0.0817   -0.3119 N   0  0  0  0  0  0  0  0  0  0  0  0
    0.5475    0.2662    0.2835 N   0  0  0  0  0  0  0  0  0  0  0  0
    1.6783    0.0422   -0.5169 C   0  0  0  0  0  0  0  0  0  0  0  0
    1.6485   -0.2333   -1.8196 N   0  0  0  0  0  0  0  0  0  0  0  0
    2.9938   -0.3657   -2.1620 O   0  0  0  0  0  0  0  0  0  0  0  0
    3.8206   -0.1699   -1.0617 N   0  0  0  0  0  0  0  0  0  0  0  0
    3.0065    0.0844   -0.0333 C   0  0  0  0  0  0  0  0  0  0  0  0
    3.3279    0.3356    1.2565 N   0  0  0  0  0  0  0  0  0  0  0  0
    4.5832    0.3910    1.8620 C   0  0  0  0  0  0  0  0  0  0  0  0
    5.7298    0.1988    1.1816 N   0  0  0  0  0  0  0  0  0  0  0  0
    6.9259    0.2649    1.8324 N   0  0  0  0  0  0  0  0  0  0  0  0
    6.9127    0.5218    3.1455 C   0  0  0  0  0  0  0  0  0  0  0  0
    5.7906    0.7182    3.8492 N   0  0  0  0  0  0  0  0  0  0  0  0
    4.6027    0.6495    3.1873 N   0  0  0  0  0  0  0  0  0  0  0  0
   -5.7257   -0.3634   -1.0417 N   0  0  0  0  0  0  0  0  0  0  0  0
   -6.9304   -0.5821   -1.6418 N   0  0  0  0  0  0  0  0  0  0  0  0
   -7.8856   -1.1072   -3.4115 H   0  0  0  0  0  0  0  0  0  0  0  0
   -2.6142   -0.4843   -1.8898 H   0  0  0  0  0  0  0  0  0  0  0  0
    2.6126    0.5121    1.9516 H   0  0  0  0  0  0  0  0  0  0  0  0
    7.8573    0.5764    3.6642 H   0  0  0  0  0  0  0  0  0  0  0  0
  1  2  2  0
  2  3  1  0
  3  4  2  0
  4  5  1  0
  5  6  1  0
  6  7  2  0
  7  8  1  0
  8  9  1  0
  9 10  2  0
 10 11  1  0
 11 12  2  0
 12 13  1  0
 13 14  2  0
 14 15  1  0
 15 16  1  0
 16 17  2  0
 17 18  1  0
 18 19  1  0
 19 20  2  0
 20 21  1  0
 21 22  2  0
 22 23  1  0
 23 24  2  0
  4 25  1  0
 25 26  2  0
 10  6  1  0
 17 13  1  0
 24 19  1  0
 26  1  1  0
  1 27  1  0
  5 28  1  0
 18 29  1  0
 22 30  1  0
M  END
$$$$
