
     RDKit          3D

 12 12  0  0  0  0  0  0  0  0999 V2000
    2.0741    0.0304    0.1441 N   0  0  0  0  0  0  0  0  0  0  0  0
    0.5971    0.0088    0.0415 C   0  0  0  0  0  0  0  0  0  0  0  0
   -0.1775   -1.0491    0.4660 N   0  0  0  0  0  4  0  0  0  0  0  0
    0.3515   -2.0840    0.9794 O   0  0  0  0  0  1  0  0  0  0  0  0
   -1.5051   -1.0826    0.3802 N   0  0  0  0  0  0  0  0  0  0  0  0
   -2.0968   -0.0308   -0.1457 C   0  0  0  0  0  0  0  0  0  0  0  0
   -1.4690    1.0390   -0.5868 N   0  0  0  0  0  0  0  0  0  0  0  0
   -0.1419    1.0444   -0.4882 N   0  0  0  0  0  4  0  0  0  0  0  0
    0.4225    2.0953   -0.9256 O   0  0  0  0  0  1  0  0  0  0  0  0
    2.5762    0.8523   -0.1933 H   0  0  0  0  0  0  0  0  0  0  0  0
    2.5486   -0.7771    0.5494 H   0  0  0  0  0  0  0  0  0  0  0  0
   -3.1797   -0.0466   -0.2209 H   0  0  0  0  0  0  0  0  0  0  0  0
  1  2  1  0
  2  3  2  0
  3  4  1  0
  3  5  1  0
  5  6  2  0
  6  7  1  0
  7  8  2  0
  8  9  1  0
  8  2  1  0
  1 10  1  0
  1 11  1  0
  6 12  1  0
M  CHG  4   3   1   4  -1   8   1   9  -1
M  END
$$$$
