
     RDKit          3D

 15 16  0  0  0  0  0  0  0  0999 V2000
   -1.9677    1.0667    0.6015 N   0  0  0  0  0  0  0  0  0  0  0  0
   -0.9983    0.0637    0.3524 C   0  0  0  0  0  0  0  0  0  0  0  0
    0.3000    0.3443   -0.0582 C   0  0  0  0  0  0  0  0  0  0  0  0
    1.1213    1.4495   -0.3499 C   0  0  0  0  0  0  0  0  0  0  0  0
    2.3571    1.0892   -0.7197 N   0  0  0  0  0  0  0  0  0  0  0  0
    2.3262   -0.2595   -0.6469 N   0  0  0  0  0  0  0  0  0  0  0  0
    1.1147   -0.7468   -0.2564 C   0  0  0  0  0  0  0  0  0  0  0  0
    0.7686   -2.0280   -0.0918 N   0  0  0  0  0  0  0  0  0  0  0  0
   -0.4252   -2.2904    0.2811 N   0  0  0  0  0  0  0  0  0  0  0  0
   -1.3170   -1.2985    0.5088 N   0  0  0  0  0  4  0  0  0  0  0  0
   -2.4999   -1.6451    0.8375 O   0  0  0  0  0  1  0  0  0  0  0  0
   -2.8960    0.6442    0.7054 H   0  0  0  0  0  0  0  0  0  0  0  0
   -1.9197    1.8948    0.0206 H   0  0  0  0  0  0  0  0  0  0  0  0
    0.8751    2.5034   -0.3091 H   0  0  0  0  0  0  0  0  0  0  0  0
    3.1608   -0.7878   -0.8755 H   0  0  0  0  0  0  0  0  0  0  0  0
  1  2  1  0
  2  3  2  0
  3  4  1  0
  4  5  2  0
  5  6  1  0
  6  7  1  0
  7  8  2  0
  8  9  1  0
  9 10  2  0
 10 11  1  0
  7  3  1  0
 10  2  1  0
  1 12  1  0
  1 13  1  0
  4 14  1  0
  6 15  1  0
M  CHG  2  10   1  11  -1
M  END
$$$$
