
     RDKit          3D

 20 22  0  0  0  0  0  0  0  0999 V2000
    4.0723   -0.9334   -0.2047 N   0  0  0  0  0  0  0  0  0  0  0  0
    2.7919   -0.6912    0.0922 C   0  0  0  0  0  0  0  0  0  0  0  0
    2.1010    0.4017   -0.1031 N   0  0  0  0  0  0  0  0  0  0  0  0
    0.8796    0.0585    0.4024 C   0  0  0  0  0  0  0  0  0  0  0  0
   -0.1973    1.0030    0.3907 C   0  0  0  0  0  0  0  0  0  0  0  0
   -1.4996    0.8432   -0.1027 C   0  0  0  0  0  0  0  0  0  0  0  0
   -2.1088   -0.3750   -0.8372 C   0  0  0  0  0  0  0  0  0  0  0  0
   -1.5038   -1.4938   -1.1671 N   0  0  0  0  0  0  0  0  0  0  0  0
   -2.4472   -2.2578   -1.8143 N   0  0  0  0  0  0  0  0  0  0  0  0
   -3.6084   -1.6207   -1.8865 N   0  0  0  0  0  0  0  0  0  0  0  0
   -3.3975   -0.4468   -1.2775 N   0  0  0  0  0  0  0  0  0  0  0  0
   -2.2428    1.9366    0.1065 N   0  0  0  0  0  0  0  0  0  0  0  0
   -1.4035    2.8501    0.7430 O   0  0  0  0  0  0  0  0  0  0  0  0
   -0.1106    2.2333    0.8837 N   0  0  0  0  0  4  0  0  0  0  0  0
    0.7533    2.9047    1.4913 O   0  0  0  0  0  1  0  0  0  0  0  0
    0.7956   -1.1706    0.9207 N   0  0  0  0  0  0  0  0  0  0  0  0
    2.0809   -1.6830    0.7050 O   0  0  0  0  0  0  0  0  0  0  0  0
    4.5335   -1.6755    0.3085 H   0  0  0  0  0  0  0  0  0  0  0  0
    4.6546   -0.1169   -0.3527 H   0  0  0  0  0  0  0  0  0  0  0  0
   -4.1435    0.2334   -1.2019 H   0  0  0  0  0  0  0  0  0  0  0  0
  1  2  1  0
  2  3  2  0
  3  4  1  0
  4  5  1  0
  5  6  1  0
  6  7  1  0
  7  8  2  0
  8  9  1  0
  9 10  2  0
 10 11  1  0
  6 12  2  0
 12 13  1  0
 13 14  1  0
 14 15  1  0
  4 16  2  0
 16 17  1  0
 11  7  1  0
 14  5  2  0
 17  2  1  0
  1 18  1  0
  1 19  1  0
 11 20  1  0
M  CHG  2  14   1  15  -1
M  END
$$$$
