
     RDKit          3D

 22 24  0  0  0  0  0  0  0  0999 V2000
    4.8422    1.8600    1.2969 O   0  0  0  0  0  1  0  0  0  0  0  0
    4.1427    1.6128    0.3147 N   0  0  0  0  0  4  0  0  0  0  0  0
    4.3460    1.9557   -0.8484 O   0  0  0  0  0  0  0  0  0  0  0  0
    3.0629    0.8817    0.6080 N   0  0  0  0  0  0  0  0  0  0  0  0
    2.0963    0.4830   -0.2300 C   0  0  0  0  0  0  0  0  0  0  0  0
    1.0417   -0.2368    0.0812 N   0  0  0  0  0  0  0  0  0  0  0  0
    0.3683   -0.3152   -1.1050 C   0  0  0  0  0  0  0  0  0  0  0  0
   -0.8915   -0.9962   -1.1838 C   0  0  0  0  0  0  0  0  0  0  0  0
   -1.9749   -0.9320   -0.2938 C   0  0  0  0  0  0  0  0  0  0  0  0
   -2.1330   -0.0587    0.9762 C   0  0  0  0  0  0  0  0  0  0  0  0
   -1.2811    0.8211    1.4545 N   0  0  0  0  0  0  0  0  0  0  0  0
   -1.8675    1.3419    2.5839 N   0  0  0  0  0  0  0  0  0  0  0  0
   -3.0590    0.7992    2.7950 N   0  0  0  0  0  0  0  0  0  0  0  0
   -3.2273   -0.0710    1.7907 N   0  0  0  0  0  0  0  0  0  0  0  0
   -2.9700   -1.7433   -0.6706 N   0  0  0  0  0  0  0  0  0  0  0  0
   -2.5408   -2.3498   -1.8498 O   0  0  0  0  0  0  0  0  0  0  0  0
   -1.2336   -1.8335   -2.1582 N   0  0  0  0  0  4  0  0  0  0  0  0
   -0.6748   -2.3231   -3.1641 O   0  0  0  0  0  1  0  0  0  0  0  0
    0.9724    0.2761   -2.1369 N   0  0  0  0  0  0  0  0  0  0  0  0
    2.1247    0.8164   -1.5587 O   0  0  0  0  0  0  0  0  0  0  0  0
    2.9326    0.6305    1.5752 H   0  0  0  0  0  0  0  0  0  0  0  0
   -4.0763   -0.6188    1.7228 H   0  0  0  0  0  0  0  0  0  0  0  0
  1  2  1  0
  2  3  2  0
  2  4  1  0
  4  5  1  0
  5  6  2  0
  6  7  1  0
  7  8  1  0
  8  9  1  0
  9 10  1  0
 10 11  2  0
 11 12  1  0
 12 13  2  0
 13 14  1  0
  9 15  2  0
 15 16  1  0
 16 17  1  0
 17 18  1  0
  7 19  2  0
 19 20  1  0
 14 10  1  0
 17  8  2  0
 20  5  1  0
  4 21  1  0
 14 22  1  0
M  CHG  4   1  -1   2   1  17   1  18  -1
M  END
$$$$
