
     RDKit          3D

 26 27  0  0  0  0  0  0  0  0999 V2000
   -4.8206   -0.2026   -1.2019 O   0  0  0  0  0  1  0  0  0  0  0  0
   -4.1432   -0.8492   -0.3931 N   0  0  0  0  0  4  0  0  0  0  0  0
   -4.5427   -1.8344    0.2396 O   0  0  0  0  0  0  0  0  0  0  0  0
   -2.7629   -0.4024   -0.1556 C   0  0  0  0  0  0  0  0  0  0  0  0
   -2.2872    0.7494   -0.7914 C   0  0  0  0  0  0  0  0  0  0  0  0
   -0.9654    1.1750   -0.5541 C   0  0  0  0  0  0  0  0  0  0  0  0
   -0.5078    2.3803   -1.2566 N   0  0  0  0  0  4  0  0  0  0  0  0
   -1.0614    2.6671   -2.3248 O   0  0  0  0  0  1  0  0  0  0  0  0
    0.3972    3.0436   -0.7255 O   0  0  0  0  0  0  0  0  0  0  0  0
   -0.0929    0.4780    0.3182 C   0  0  0  0  0  0  0  0  0  0  0  0
    1.2777    0.8361    0.4315 N   0  0  0  0  0  0  0  0  0  0  0  0
    2.2484   -0.0002   -0.0070 C   0  0  0  0  0  0  0  0  0  0  0  0
    2.1602   -1.2124   -0.5074 N   0  0  0  0  0  0  0  0  0  0  0  0
    3.4297   -1.6370   -0.8247 N   0  0  0  0  0  0  0  0  0  0  0  0
    4.2620   -0.6783   -0.4943 C   0  0  0  0  0  0  0  0  0  0  0  0
    3.5637    0.3721    0.0169 N   0  0  0  0  0  0  0  0  0  0  0  0
   -0.6270   -0.6748    0.9445 C   0  0  0  0  0  0  0  0  0  0  0  0
    0.1418   -1.4032    1.9542 N   0  0  0  0  0  4  0  0  0  0  0  0
    0.7137   -0.7334    2.8262 O   0  0  0  0  0  1  0  0  0  0  0  0
    0.0863   -2.6397    1.9208 O   0  0  0  0  0  0  0  0  0  0  0  0
   -1.9431   -1.1193    0.7189 C   0  0  0  0  0  0  0  0  0  0  0  0
   -2.9316    1.3097   -1.4702 H   0  0  0  0  0  0  0  0  0  0  0  0
    1.4414    1.8425    0.3295 H   0  0  0  0  0  0  0  0  0  0  0  0
    5.3373   -0.6949   -0.5988 H   0  0  0  0  0  0  0  0  0  0  0  0
    3.9397    1.2364    0.3737 H   0  0  0  0  0  0  0  0  0  0  0  0
   -2.3135   -2.0080    1.2313 H   0  0  0  0  0  0  0  0  0  0  0  0
  1  2  1  0
  2  3  2  0
  2  4  1  0
  4  5  2  0
  5  6  1  0
  6  7  1  0
  7  8  1  0
  7  9  2  0
  6 10  2  0
 10 11  1  0
 11 12  1  0
 12 13  2  0
 13 14  1  0
 14 15  2  0
 15 16  1  0
 10 17  1  0
 17 18  1  0
 18 19  1  0
 18 20  2  0
 17 21  2  0
 16 12  1  0
 21  4  1  0
  5 22  1  0
 11 23  1  0
 15 24  1  0
 16 25  1  0
 21 26  1  0
M  CHG  6   1  -1   2   1   7   1   8  -1  18   1  19  -1
M  END
$$$$
