
     RDKit          3D

 33 33  0  0  0  0  0  0  0  0999 V2000
    0.2989    1.2375   -2.8828 O   0  0  0  0  0  1  0  0  0  0  0  0
   -0.0690    1.3111   -1.7040 N   0  0  0  0  0  4  0  0  0  0  0  0
   -0.4838    2.3303   -1.1325 O   0  0  0  0  0  0  0  0  0  0  0  0
   -0.0116    0.1068   -0.9103 C   0  0  0  0  0  0  0  0  0  0  0  0
   -1.2264   -0.5031   -0.5752 C   0  0  0  0  0  0  0  0  0  0  0  0
   -2.4564    0.0556   -0.9472 N   0  0  0  0  0  0  0  0  0  0  0  0
   -3.6725   -0.6293   -0.4776 C   0  0  0  0  0  0  0  0  0  0  0  0
   -3.9732   -0.2717    0.9834 C   0  0  0  0  0  0  0  0  0  0  0  0
   -4.0320    1.1504    1.1340 O   0  0  0  0  0  0  0  0  0  0  0  0
   -1.2366   -1.6833    0.0576 N   0  0  0  0  0  0  0  0  0  0  0  0
   -0.0744   -2.2709    0.3889 N   0  0  0  0  0  4  0  0  0  0  0  0
   -0.1993   -3.3702    0.9788 O   0  0  0  0  0  1  0  0  0  0  0  0
    1.1243   -1.6827    0.0977 C   0  0  0  0  0  0  0  0  0  0  0  0
    2.2623   -2.3884    0.5595 N   0  0  0  0  0  4  0  0  0  0  0  0
    2.6156   -2.1738    1.7255 O   0  0  0  0  0  1  0  0  0  0  0  0
    2.8777   -3.0626   -0.2752 O   0  0  0  0  0  0  0  0  0  0  0  0
    1.2263   -0.4567   -0.5707 C   0  0  0  0  0  0  0  0  0  0  0  0
    2.4597    0.1652   -0.8225 N   0  0  0  0  0  0  0  0  0  0  0  0
    2.7927    1.4268   -0.1377 C   0  0  0  0  0  0  0  0  0  0  0  0
    3.2920    1.2084    1.2955 C   0  0  0  0  0  0  0  0  0  0  0  0
    3.7066    2.4381    1.8768 O   0  0  0  0  0  0  0  0  0  0  0  0
   -2.5043    1.0412   -0.6608 H   0  0  0  0  0  0  0  0  0  0  0  0
   -4.4960   -0.2588   -1.0993 H   0  0  0  0  0  0  0  0  0  0  0  0
   -3.6275   -1.7137   -0.6281 H   0  0  0  0  0  0  0  0  0  0  0  0
   -4.9291   -0.6990    1.3019 H   0  0  0  0  0  0  0  0  0  0  0  0
   -3.1933   -0.6413    1.6553 H   0  0  0  0  0  0  0  0  0  0  0  0
   -4.8620    1.4508    0.7231 H   0  0  0  0  0  0  0  0  0  0  0  0
    3.2758   -0.4526   -0.8766 H   0  0  0  0  0  0  0  0  0  0  0  0
    1.9556    2.1309   -0.1302 H   0  0  0  0  0  0  0  0  0  0  0  0
    3.5827    1.9238   -0.7134 H   0  0  0  0  0  0  0  0  0  0  0  0
    2.5120    0.7704    1.9266 H   0  0  0  0  0  0  0  0  0  0  0  0
    4.1493    0.5276    1.3011 H   0  0  0  0  0  0  0  0  0  0  0  0
    2.9161    2.9831    2.0364 H   0  0  0  0  0  0  0  0  0  0  0  0
  1  2  1  0
  2  3  2  0
  2  4  1  0
  4  5  2  0
  5  6  1  0
  6  7  1  0
  7  8  1  0
  8  9  1  0
  5 10  1  0
 10 11  2  0
 11 12  1  0
 11 13  1  0
 13 14  1  0
 14 15  1  0
 14 16  2  0
 13 17  2  0
 17 18  1  0
 18 19  1  0
 19 20  1  0
 20 21  1  0
 17  4  1  0
  6 22  1  0
  7 23  1  0
  7 24  1  0
  8 25  1  0
  8 26  1  0
  9 27  1  0
 18 28  1  0
 19 29  1  0
 19 30  1  0
 20 31  1  0
 20 32  1  0
 21 33  1  0
M  CHG  6   1  -1   2   1  11   1  12  -1  14   1  15  -1
M  END
$$$$
