
     RDKit          3D

 52 51  0  0  0  0  0  0  0  0999 V2000
    3.1936    2.0728    1.3446 O   0  0  0  0  0  0  0  0  0  0  0  0
    3.4909    1.4836    0.3215 C   0  0  0  0  0  0  0  0  0  0  0  0
    4.6935    1.0972   -0.1503 N   0  0  0  0  0  0  0  0  0  0  0  0
    5.8713    1.3339    0.4940 N   0  0  0  0  0  4  0  0  0  0  0  0
    5.8645    2.0599    1.4818 O   0  0  0  0  0  1  0  0  0  0  0  0
    6.8121    0.7673   -0.0563 O   0  0  0  0  0  0  0  0  0  0  0  0
    2.5401    1.0413   -0.5471 O   0  0  0  0  0  0  0  0  0  0  0  0
    1.1471    1.1726   -0.1852 C   0  0  0  0  0  0  0  0  0  0  0  0
    0.5738   -0.1307    0.4524 C   0  0  0  0  0  0  0  0  0  0  0  0
    1.4214   -1.3672    0.0026 C   0  0  0  0  0  0  0  0  0  0  0  0
    1.3710   -1.5596   -1.4285 O   0  0  0  0  0  0  0  0  0  0  0  0
    2.5359   -1.4905   -2.1395 C   0  0  0  0  0  0  0  0  0  0  0  0
    3.6088   -1.2084   -1.6279 O   0  0  0  0  0  0  0  0  0  0  0  0
    2.2519   -1.7604   -3.4309 N   0  0  0  0  0  0  0  0  0  0  0  0
    3.1674   -1.6849   -4.4394 N   0  0  0  0  0  4  0  0  0  0  0  0
    4.3056   -1.3161   -4.1726 O   0  0  0  0  0  1  0  0  0  0  0  0
    2.6712   -1.9904   -5.5203 O   0  0  0  0  0  0  0  0  0  0  0  0
    0.8105    0.0262    1.9617 N   0  0  0  0  0  4  0  0  0  0  0  0
    0.2907    1.0018    2.5125 O   0  0  0  0  0  1  0  0  0  0  0  0
    1.4185   -0.8734    2.5489 O   0  0  0  0  0  0  0  0  0  0  0  0
   -0.9924   -0.3475    0.3091 C   0  0  0  0  0  0  0  0  0  0  0  0
   -1.5097   -1.6007    1.0884 C   0  0  0  0  0  0  0  0  0  0  0  0
   -2.9467   -1.7244    0.9872 O   0  0  0  0  0  0  0  0  0  0  0  0
   -3.4549   -2.8898    1.4968 C   0  0  0  0  0  0  0  0  0  0  0  0
   -2.7424   -3.7321    2.0146 O   0  0  0  0  0  0  0  0  0  0  0  0
   -4.7912   -2.8866    1.3126 N   0  0  0  0  0  0  0  0  0  0  0  0
   -5.6141   -3.9097    1.6854 N   0  0  0  0  0  4  0  0  0  0  0  0
   -6.7843   -3.6647    1.4009 O   0  0  0  0  0  1  0  0  0  0  0  0
   -5.1283   -4.8969    2.2238 O   0  0  0  0  0  0  0  0  0  0  0  0
   -1.9358    0.8341    0.6807 C   0  0  0  0  0  0  0  0  0  0  0  0
   -1.4280    2.1242    0.3057 O   0  0  0  0  0  0  0  0  0  0  0  0
   -2.2997    3.1561    0.5457 C   0  0  0  0  0  0  0  0  0  0  0  0
   -3.4179    2.9668    0.9935 O   0  0  0  0  0  0  0  0  0  0  0  0
   -1.6955    4.3128    0.2049 N   0  0  0  0  0  0  0  0  0  0  0  0
   -2.2841    5.5393    0.3127 N   0  0  0  0  0  4  0  0  0  0  0  0
   -3.4336    5.6134    0.7298 O   0  0  0  0  0  1  0  0  0  0  0  0
   -1.5228    6.4296   -0.0585 O   0  0  0  0  0  0  0  0  0  0  0  0
   -1.2665   -0.6205   -1.1771 N   0  0  0  0  0  4  0  0  0  0  0  0
   -1.2514    0.3460   -1.9476 O   0  0  0  0  0  1  0  0  0  0  0  0
   -1.4455   -1.7892   -1.5389 O   0  0  0  0  0  0  0  0  0  0  0  0
    4.7723    0.4656   -0.9328 H   0  0  0  0  0  0  0  0  0  0  0  0
    1.0057    2.0726    0.4228 H   0  0  0  0  0  0  0  0  0  0  0  0
    0.6639    1.3861   -1.1391 H   0  0  0  0  0  0  0  0  0  0  0  0
    1.0451   -2.2952    0.4446 H   0  0  0  0  0  0  0  0  0  0  0  0
    2.4591   -1.2926    0.3504 H   0  0  0  0  0  0  0  0  0  0  0  0
    1.3316   -2.0180   -3.7385 H   0  0  0  0  0  0  0  0  0  0  0  0
   -1.0432   -2.5259    0.7329 H   0  0  0  0  0  0  0  0  0  0  0  0
   -1.2831   -1.4966    2.1556 H   0  0  0  0  0  0  0  0  0  0  0  0
   -5.2745   -2.1264    0.8732 H   0  0  0  0  0  0  0  0  0  0  0  0
   -2.0977    0.8469    1.7664 H   0  0  0  0  0  0  0  0  0  0  0  0
   -2.9191    0.6942    0.2088 H   0  0  0  0  0  0  0  0  0  0  0  0
   -0.7549    4.3540   -0.1358 H   0  0  0  0  0  0  0  0  0  0  0  0
  1  2  2  0
  2  3  1  0
  3  4  1  0
  4  5  1  0
  4  6  2  0
  2  7  1  0
  7  8  1  0
  8  9  1  0
  9 10  1  0
 10 11  1  0
 11 12  1  0
 12 13  2  0
 12 14  1  0
 14 15  1  0
 15 16  1  0
 15 17  2  0
  9 18  1  0
 18 19  1  0
 18 20  2  0
  9 21  1  0
 21 22  1  0
 22 23  1  0
 23 24  1  0
 24 25  2  0
 24 26  1  0
 26 27  1  0
 27 28  1  0
 27 29  2  0
 21 30  1  0
 30 31  1  0
 31 32  1  0
 32 33  2  0
 32 34  1  0
 34 35  1  0
 35 36  1  0
 35 37  2  0
 21 38  1  0
 38 39  1  0
 38 40  2  0
  3 41  1  0
  8 42  1  0
  8 43  1  0
 10 44  1  0
 10 45  1  0
 14 46  1  0
 22 47  1  0
 22 48  1  0
 26 49  1  0
 30 50  1  0
 30 51  1  0
 34 52  1  0
M  CHG  8   4   1   5  -1  15   1  16  -1  18   1  19  -1  27   1  28  -1
M  CHG  4  35   1  36  -1  38   1  39  -1
M  END
$$$$
