
     RDKit          3D

 43 45  0  0  0  0  0  0  0  0999 V2000
   -0.9709    4.2352   -1.0596 O   0  0  0  0  0  0  0  0  0  0  0  0
   -1.8861    3.4812   -1.3390 C   0  0  0  0  0  0  0  0  0  0  0  0
   -3.1819    3.7581   -1.5942 N   0  0  0  0  0  0  0  0  0  0  0  0
   -3.7080    5.0170   -1.5906 N   0  0  0  0  0  4  0  0  0  0  0  0
   -4.9007    5.0022   -1.8856 O   0  0  0  0  0  1  0  0  0  0  0  0
   -2.9826    5.9612   -1.3031 O   0  0  0  0  0  0  0  0  0  0  0  0
   -1.7143    2.1326   -1.4286 O   0  0  0  0  0  0  0  0  0  0  0  0
   -0.3553    1.6950   -1.3010 C   0  0  0  0  0  0  0  0  0  0  0  0
   -0.2813    0.3353   -1.7826 O   0  0  0  0  0  0  0  0  0  0  0  0
   -0.7560   -0.4861   -0.6966 C   0  0  0  0  0  0  0  0  0  0  0  0
   -0.1084   -1.8703   -0.6861 C   0  0  0  0  0  0  0  0  0  0  0  0
   -0.8477   -2.7959    0.1194 O   0  0  0  0  0  0  0  0  0  0  0  0
   -1.9864   -3.2706   -0.4589 C   0  0  0  0  0  0  0  0  0  0  0  0
   -2.3609   -2.9015   -1.5588 O   0  0  0  0  0  0  0  0  0  0  0  0
   -2.5574   -4.1460    0.3940 N   0  0  0  0  0  0  0  0  0  0  0  0
   -3.7347   -4.7897    0.1525 N   0  0  0  0  0  4  0  0  0  0  0  0
   -4.0392   -5.5291    1.0858 O   0  0  0  0  0  1  0  0  0  0  0  0
   -4.3246   -4.5720   -0.8992 O   0  0  0  0  0  0  0  0  0  0  0  0
    1.1772   -1.6916   -0.0577 O   0  0  0  0  0  0  0  0  0  0  0  0
    1.1461   -0.4982    0.7416 C   0  0  0  0  0  0  0  0  0  0  0  0
    2.1624    0.5341    0.2410 C   0  0  0  0  0  0  0  0  0  0  0  0
    3.3082    0.5842    1.0966 O   0  0  0  0  0  0  0  0  0  0  0  0
    4.2906   -0.3116    0.8088 C   0  0  0  0  0  0  0  0  0  0  0  0
    4.2069   -1.1191   -0.0994 O   0  0  0  0  0  0  0  0  0  0  0  0
    5.2968   -0.1154    1.6866 N   0  0  0  0  0  0  0  0  0  0  0  0
    6.4537   -0.8360    1.7001 N   0  0  0  0  0  4  0  0  0  0  0  0
    6.6009   -1.7401    0.8867 O   0  0  0  0  0  1  0  0  0  0  0  0
    7.2114   -0.4454    2.5857 O   0  0  0  0  0  0  0  0  0  0  0  0
    1.5008    1.8081    0.3014 O   0  0  0  0  0  0  0  0  0  0  0  0
    0.0821    1.6084    0.1732 C   0  0  0  0  0  0  0  0  0  0  0  0
   -0.1802    0.1702    0.5208 C   0  0  0  0  0  0  0  0  0  0  0  0
   -1.0339    0.0509    1.7274 N   0  0  0  0  0  4  0  0  0  0  0  0
   -0.6053    0.5576    2.7702 O   0  0  0  0  0  1  0  0  0  0  0  0
   -2.1152   -0.5401    1.6243 O   0  0  0  0  0  0  0  0  0  0  0  0
   -3.8441    3.0474   -1.8439 H   0  0  0  0  0  0  0  0  0  0  0  0
    0.3157    2.2982   -1.9232 H   0  0  0  0  0  0  0  0  0  0  0  0
   -1.8483   -0.5095   -0.7586 H   0  0  0  0  0  0  0  0  0  0  0  0
    0.0721   -2.2768   -1.6875 H   0  0  0  0  0  0  0  0  0  0  0  0
   -2.1511   -4.3679    1.2833 H   0  0  0  0  0  0  0  0  0  0  0  0
    1.3561   -0.7899    1.7766 H   0  0  0  0  0  0  0  0  0  0  0  0
    2.4570    0.3691   -0.8031 H   0  0  0  0  0  0  0  0  0  0  0  0
    5.2601    0.6047    2.3831 H   0  0  0  0  0  0  0  0  0  0  0  0
   -0.4234    2.3522    0.7965 H   0  0  0  0  0  0  0  0  0  0  0  0
  1  2  2  0
  2  3  1  0
  3  4  1  0
  4  5  1  0
  4  6  2  0
  2  7  1  0
  7  8  1  0
  8  9  1  0
  9 10  1  0
 10 11  1  0
 11 12  1  0
 12 13  1  0
 13 14  2  0
 13 15  1  0
 15 16  1  0
 16 17  1  0
 16 18  2  0
 11 19  1  0
 19 20  1  0
 20 21  1  0
 21 22  1  0
 22 23  1  0
 23 24  2  0
 23 25  1  0
 25 26  1  0
 26 27  1  0
 26 28  2  0
 21 29  1  0
 29 30  1  0
 30 31  1  0
 31 32  1  0
 32 33  1  0
 32 34  2  0
 30  8  1  0
 31 10  1  0
 31 20  1  0
  3 35  1  0
  8 36  1  0
 10 37  1  0
 11 38  1  0
 15 39  1  0
 20 40  1  0
 21 41  1  0
 25 42  1  0
 30 43  1  0
M  CHG  8   4   1   5  -1  16   1  17  -1  26   1  27  -1  32   1  33  -1
M  END
$$$$
