
     RDKit          3D

 16 15  0  0  0  0  0  0  0  0999 V2000
   -3.4307    1.7096   -0.1503 N   0  0  0  0  0  2  0  0  0  0  0  0
   -2.9560    0.7148   -0.4392 N   0  0  0  0  0  4  0  0  0  0  0  0
   -2.4292   -0.3671   -0.7504 N   0  0  0  0  0  0  0  0  0  0  0  0
   -0.9614   -0.3479   -0.9127 C   0  0  0  0  0  0  0  0  0  0  0  0
   -0.2564   -0.4350    0.4526 C   0  0  0  0  0  0  0  0  0  0  0  0
   -0.5118   -1.7197    1.0310 O   0  0  0  0  0  0  0  0  0  0  0  0
    1.2609   -0.2563    0.3113 C   0  0  0  0  0  0  0  0  0  0  0  0
    1.5709    1.1372   -0.0282 N   0  0  0  0  0  0  0  0  0  0  0  0
    2.7810    1.3950   -0.1643 N   0  0  0  0  0  4  0  0  0  0  0  0
    3.8894    1.6270   -0.2874 N   0  0  0  0  0  2  0  0  0  0  0  0
   -0.6598    0.5524   -1.4615 H   0  0  0  0  0  0  0  0  0  0  0  0
   -0.6906   -1.2156   -1.5253 H   0  0  0  0  0  0  0  0  0  0  0  0
   -0.6637    0.3230    1.1325 H   0  0  0  0  0  0  0  0  0  0  0  0
   -0.3439   -1.6505    1.9866 H   0  0  0  0  0  0  0  0  0  0  0  0
    1.6533   -0.9406   -0.4519 H   0  0  0  0  0  0  0  0  0  0  0  0
    1.7481   -0.5264    1.2572 H   0  0  0  0  0  0  0  0  0  0  0  0
  1  2  2  0
  2  3  2  0
  3  4  1  0
  4  5  1  0
  5  6  1  0
  5  7  1  0
  7  8  1  0
  8  9  2  0
  9 10  2  0
  4 11  1  0
  4 12  1  0
  5 13  1  0
  6 14  1  0
  7 15  1  0
  7 16  1  0
M  CHG  4   1  -1   2   1   9   1  10  -1
M  END
$$$$
