
     RDKit          3D

 27 26  0  0  0  0  0  0  0  0999 V2000
   -6.0281    2.1326   -1.1120 N   0  0  0  0  0  2  0  0  0  0  0  0
   -5.5639    1.0944   -1.0452 N   0  0  0  0  0  4  0  0  0  0  0  0
   -5.0627   -0.0424   -0.9685 N   0  0  0  0  0  0  0  0  0  0  0  0
   -3.6347   -0.0885   -0.6293 C   0  0  0  0  0  0  0  0  0  0  0  0
   -3.4606   -0.3618    0.8645 C   0  0  0  0  0  0  0  0  0  0  0  0
   -2.0699   -0.4839    1.2035 O   0  0  0  0  0  0  0  0  0  0  0  0
   -1.4031    0.6923    1.3649 C   0  0  0  0  0  0  0  0  0  0  0  0
   -1.9088    1.8042    1.2897 O   0  0  0  0  0  0  0  0  0  0  0  0
    0.0422    0.4460    1.6535 C   0  0  0  0  0  0  0  0  0  0  0  0
    0.8055    0.0516    0.4300 C   0  0  0  0  0  0  0  0  0  0  0  0
    0.3454   -0.0448   -0.6983 O   0  0  0  0  0  0  0  0  0  0  0  0
    2.1088   -0.1831    0.7608 O   0  0  0  0  0  0  0  0  0  0  0  0
    2.9355   -0.5745   -0.3454 C   0  0  0  0  0  0  0  0  0  0  0  0
    4.3581   -0.7883    0.1643 C   0  0  0  0  0  0  0  0  0  0  0  0
    5.2375   -1.2107   -0.9318 N   0  0  0  0  0  0  0  0  0  0  0  0
    5.8679   -0.3028   -1.5036 N   0  0  0  0  0  4  0  0  0  0  0  0
    6.4391    0.5343   -2.0236 N   0  0  0  0  0  2  0  0  0  0  0  0
   -3.1614   -0.8946   -1.2018 H   0  0  0  0  0  0  0  0  0  0  0  0
   -3.1168    0.8318   -0.9269 H   0  0  0  0  0  0  0  0  0  0  0  0
   -3.9379   -1.3129    1.1260 H   0  0  0  0  0  0  0  0  0  0  0  0
   -3.9450    0.4075    1.4785 H   0  0  0  0  0  0  0  0  0  0  0  0
    0.4708    1.3683    2.0599 H   0  0  0  0  0  0  0  0  0  0  0  0
    0.1227   -0.3355    2.4161 H   0  0  0  0  0  0  0  0  0  0  0  0
    2.9250    0.2131   -1.1086 H   0  0  0  0  0  0  0  0  0  0  0  0
    2.5507   -1.5036   -0.7829 H   0  0  0  0  0  0  0  0  0  0  0  0
    4.7285    0.1193    0.6587 H   0  0  0  0  0  0  0  0  0  0  0  0
    4.3551   -1.5679    0.9351 H   0  0  0  0  0  0  0  0  0  0  0  0
  1  2  2  0
  2  3  2  0
  3  4  1  0
  4  5  1  0
  5  6  1  0
  6  7  1  0
  7  8  2  0
  7  9  1  0
  9 10  1  0
 10 11  2  0
 10 12  1  0
 12 13  1  0
 13 14  1  0
 14 15  1  0
 15 16  2  0
 16 17  2  0
  4 18  1  0
  4 19  1  0
  5 20  1  0
  5 21  1  0
  9 22  1  0
  9 23  1  0
 13 24  1  0
 13 25  1  0
 14 26  1  0
 14 27  1  0
M  CHG  4   1  -1   2   1  16   1  17  -1
M  END
$$$$
