
     RDKit          3D

 15 15  0  0  0  0  0  0  0  0999 V2000
    2.4549   -0.8882   -0.2758 N   0  0  0  0  0  0  0  0  0  0  0  0
    2.0012    0.3726   -0.4096 C   0  0  0  0  0  0  0  0  0  0  0  0
    2.7679    1.2854   -0.6994 O   0  0  0  0  0  0  0  0  0  0  0  0
    0.6764    0.6067   -0.2496 N   0  0  0  0  0  0  0  0  0  0  0  0
   -0.3230   -0.2784    0.1197 C   0  0  0  0  0  0  0  0  0  0  0  0
   -0.1334   -1.5648    0.4400 N   0  0  0  0  0  0  0  0  0  0  0  0
   -1.3927   -2.0704    0.7481 O   0  0  0  0  0  0  0  0  0  0  0  0
   -2.3744   -1.0897    0.6309 N   0  0  0  0  0  0  0  0  0  0  0  0
   -1.6968   -0.0056    0.2466 C   0  0  0  0  0  0  0  0  0  0  0  0
   -2.4075    1.2152    0.0312 N   0  0  0  0  0  4  0  0  0  0  0  0
   -1.7176    2.1929   -0.2974 O   0  0  0  0  0  1  0  0  0  0  0  0
   -3.6359    1.2245    0.1825 O   0  0  0  0  0  0  0  0  0  0  0  0
    1.9112   -1.5654    0.2445 H   0  0  0  0  0  0  0  0  0  0  0  0
    3.4590   -1.0066   -0.2855 H   0  0  0  0  0  0  0  0  0  0  0  0
    0.4108    1.5718   -0.4263 H   0  0  0  0  0  0  0  0  0  0  0  0
  1  2  1  0
  2  3  2  0
  2  4  1  0
  4  5  1  0
  5  6  2  0
  6  7  1  0
  7  8  1  0
  8  9  2  0
  9 10  1  0
 10 11  1  0
 10 12  2  0
  9  5  1  0
  1 13  1  0
  1 14  1  0
  4 15  1  0
M  CHG  2  10   1  11  -1
M  END
$$$$
