
     RDKit          3D

 55 54  0  0  0  0  0  0  0  0999 V2000
   -0.8777    1.2700    0.5654 O   0  0  0  0  0  0  0  0  0  0  0  0
   -1.0550    0.4724   -0.3533 C   0  0  0  0  0  0  0  0  0  0  0  0
    0.0833   -0.0217   -1.2123 C   0  0  0  0  0  0  0  0  0  0  0  0
    1.1735   -0.6589   -0.3864 C   0  0  0  0  0  0  0  0  0  0  0  0
    0.9318   -1.4274    0.5413 O   0  0  0  0  0  0  0  0  0  0  0  0
    2.4573   -0.3723   -0.8054 N   0  0  0  0  0  0  0  0  0  0  0  0
    3.6803   -0.7530   -0.0375 C   0  0  0  0  0  0  0  0  0  0  0  0
    3.7971    0.1250    1.2411 C   0  0  0  0  0  0  0  0  0  0  0  0
    3.8182    1.5063    0.8821 O   0  0  0  0  0  0  0  0  0  0  0  0
    4.0222    2.3586    1.9984 N   0  0  0  0  0  4  0  0  0  0  0  0
    4.1168    1.8256    3.1042 O   0  0  0  0  0  1  0  0  0  0  0  0
    4.1067    3.5400    1.6756 O   0  0  0  0  0  0  0  0  0  0  0  0
    3.6824   -2.2459    0.4112 C   0  0  0  0  0  0  0  0  0  0  0  0
    3.4019   -3.0839   -0.7073 O   0  0  0  0  0  0  0  0  0  0  0  0
    3.2764   -4.4487   -0.3444 N   0  0  0  0  0  4  0  0  0  0  0  0
    2.8966   -5.1572   -1.2755 O   0  0  0  0  0  1  0  0  0  0  0  0
    3.5845   -4.7510    0.8086 O   0  0  0  0  0  0  0  0  0  0  0  0
    4.9122   -0.5434   -0.9702 C   0  0  0  0  0  0  0  0  0  0  0  0
    4.9116    0.7855   -1.4964 O   0  0  0  0  0  0  0  0  0  0  0  0
    6.0317    1.0403   -2.3342 N   0  0  0  0  0  4  0  0  0  0  0  0
    5.9977    2.1586   -2.8453 O   0  0  0  0  0  1  0  0  0  0  0  0
    6.8600    0.1352   -2.4486 O   0  0  0  0  0  0  0  0  0  0  0  0
   -2.2997   -0.0191   -0.6938 N   0  0  0  0  0  0  0  0  0  0  0  0
   -3.5749    0.3267    0.0114 C   0  0  0  0  0  0  0  0  0  0  0  0
   -3.5352   -0.1579    1.4902 C   0  0  0  0  0  0  0  0  0  0  0  0
   -4.7795    0.1494    2.1239 O   0  0  0  0  0  0  0  0  0  0  0  0
   -4.8286   -0.2661    3.4773 N   0  0  0  0  0  4  0  0  0  0  0  0
   -3.8429   -0.8514    3.9263 O   0  0  0  0  0  1  0  0  0  0  0  0
   -5.8962    0.0166    4.0136 O   0  0  0  0  0  0  0  0  0  0  0  0
   -4.7342   -0.4217   -0.7259 C   0  0  0  0  0  0  0  0  0  0  0  0
   -4.7522   -0.0049   -2.0957 O   0  0  0  0  0  0  0  0  0  0  0  0
   -5.7813   -0.6278   -2.8470 N   0  0  0  0  0  4  0  0  0  0  0  0
   -6.5115   -1.4197   -2.2484 O   0  0  0  0  0  1  0  0  0  0  0  0
   -5.7790   -0.2795   -4.0256 O   0  0  0  0  0  0  0  0  0  0  0  0
   -3.8730    1.8598   -0.0861 C   0  0  0  0  0  0  0  0  0  0  0  0
   -3.2038    2.5925    0.9421 O   0  0  0  0  0  0  0  0  0  0  0  0
   -3.3004    3.9947    0.7659 N   0  0  0  0  0  4  0  0  0  0  0  0
   -2.7091    4.6321    1.6374 O   0  0  0  0  0  1  0  0  0  0  0  0
   -3.9649    4.3913   -0.1955 O   0  0  0  0  0  0  0  0  0  0  0  0
    0.4664    0.8385   -1.7750 H   0  0  0  0  0  0  0  0  0  0  0  0
   -0.2580   -0.7676   -1.9404 H   0  0  0  0  0  0  0  0  0  0  0  0
    2.5581    0.4529   -1.3917 H   0  0  0  0  0  0  0  0  0  0  0  0
    2.9419   -0.0622    1.9046 H   0  0  0  0  0  0  0  0  0  0  0  0
    4.7257   -0.1393    1.7662 H   0  0  0  0  0  0  0  0  0  0  0  0
    4.6736   -2.4974    0.8149 H   0  0  0  0  0  0  0  0  0  0  0  0
    2.9489   -2.4100    1.2066 H   0  0  0  0  0  0  0  0  0  0  0  0
    4.8582   -1.2507   -1.8079 H   0  0  0  0  0  0  0  0  0  0  0  0
    5.8336   -0.7254   -0.4005 H   0  0  0  0  0  0  0  0  0  0  0  0
   -2.3422   -0.7364   -1.4152 H   0  0  0  0  0  0  0  0  0  0  0  0
   -3.3669   -1.2440    1.4973 H   0  0  0  0  0  0  0  0  0  0  0  0
   -2.7119    0.3249    2.0351 H   0  0  0  0  0  0  0  0  0  0  0  0
   -5.6993   -0.1888   -0.2542 H   0  0  0  0  0  0  0  0  0  0  0  0
   -4.5556   -1.5059   -0.6743 H   0  0  0  0  0  0  0  0  0  0  0  0
   -3.5627    2.2159   -1.0805 H   0  0  0  0  0  0  0  0  0  0  0  0
   -4.9529    2.0263    0.0335 H   0  0  0  0  0  0  0  0  0  0  0  0
  1  2  2  0
  2  3  1  0
  3  4  1  0
  4  5  2  0
  4  6  1  0
  6  7  1  0
  7  8  1  0
  8  9  1  0
  9 10  1  0
 10 11  1  0
 10 12  2  0
  7 13  1  0
 13 14  1  0
 14 15  1  0
 15 16  1  0
 15 17  2  0
  7 18  1  0
 18 19  1  0
 19 20  1  0
 20 21  1  0
 20 22  2  0
  2 23  1  0
 23 24  1  0
 24 25  1  0
 25 26  1  0
 26 27  1  0
 27 28  1  0
 27 29  2  0
 24 30  1  0
 30 31  1  0
 31 32  1  0
 32 33  1  0
 32 34  2  0
 24 35  1  0
 35 36  1  0
 36 37  1  0
 37 38  1  0
 37 39  2  0
  3 40  1  0
  3 41  1  0
  6 42  1  0
  8 43  1  0
  8 44  1  0
 13 45  1  0
 13 46  1  0
 18 47  1  0
 18 48  1  0
 23 49  1  0
 25 50  1  0
 25 51  1  0
 30 52  1  0
 30 53  1  0
 35 54  1  0
 35 55  1  0
M  CHG  8  10   1  11  -1  15   1  16  -1  20   1  21  -1  27   1  28  -1
M  CHG  4  32   1  33  -1  37   1  38  -1
M  END
$$$$
