
     RDKit          3D

 54 56  0  0  0  0  0  0  0  0999 V2000
   -1.9285   -3.2437   -0.7006 O   0  0  0  0  0  0  0  0  0  0  0  0
   -2.0318   -2.6085   -1.7356 C   0  0  0  0  0  0  0  0  0  0  0  0
   -2.7097   -2.9191   -2.8597 N   0  0  0  0  0  0  0  0  0  0  0  0
   -3.4277   -4.0644   -3.0295 N   0  0  0  0  0  4  0  0  0  0  0  0
   -3.4645   -4.8842   -2.1193 O   0  0  0  0  0  1  0  0  0  0  0  0
   -3.9548   -4.1007   -4.1394 O   0  0  0  0  0  0  0  0  0  0  0  0
   -1.4362   -1.3998   -1.9336 O   0  0  0  0  0  0  0  0  0  0  0  0
   -0.6511   -0.7782   -0.8870 C   0  0  0  0  0  0  0  0  0  0  0  0
   -1.4980   -0.4595    0.3625 C   0  0  0  0  0  0  0  0  0  0  0  0
   -0.6552    0.3061    1.4017 C   0  0  0  0  0  0  0  0  0  0  0  0
   -1.3530    0.4952    2.6575 O   0  0  0  0  0  0  0  0  0  0  0  0
   -2.5263    1.1853    2.7128 C   0  0  0  0  0  0  0  0  0  0  0  0
   -3.0503    1.6946    1.7394 O   0  0  0  0  0  0  0  0  0  0  0  0
   -2.9439    1.1754    3.9956 N   0  0  0  0  0  0  0  0  0  0  0  0
   -4.0903    1.7662    4.4349 N   0  0  0  0  0  4  0  0  0  0  0  0
   -4.8023    2.3575    3.6327 O   0  0  0  0  0  1  0  0  0  0  0  0
   -4.2371    1.6045    5.6449 O   0  0  0  0  0  0  0  0  0  0  0  0
    0.5705   -0.5662    1.7541 C   0  0  0  0  0  0  0  0  0  0  0  0
    1.4433   -0.8575    0.5151 C   0  0  0  0  0  0  0  0  0  0  0  0
    2.5491   -1.6569    1.0012 O   0  0  0  0  0  0  0  0  0  0  0  0
    3.5225   -2.0906    0.1518 C   0  0  0  0  0  0  0  0  0  0  0  0
    3.5443   -1.8175   -1.0353 O   0  0  0  0  0  0  0  0  0  0  0  0
    4.3907   -2.8332    0.8692 N   0  0  0  0  0  0  0  0  0  0  0  0
    5.5031   -3.4255    0.3508 N   0  0  0  0  0  4  0  0  0  0  0  0
    5.7599   -3.2731   -0.8374 O   0  0  0  0  0  1  0  0  0  0  0  0
    6.1164   -4.0515    1.2129 O   0  0  0  0  0  0  0  0  0  0  0  0
    0.5814   -1.6192   -0.5070 C   0  0  0  0  0  0  0  0  0  0  0  0
    1.8998    0.4921   -0.0611 C   0  0  0  0  0  0  0  0  0  0  0  0
    0.6838    1.3575   -0.4596 C   0  0  0  0  0  0  0  0  0  0  0  0
    1.2567    2.5669   -1.0150 O   0  0  0  0  0  0  0  0  0  0  0  0
    0.4687    3.5516   -1.5285 C   0  0  0  0  0  0  0  0  0  0  0  0
   -0.7469    3.4941   -1.5496 O   0  0  0  0  0  0  0  0  0  0  0  0
    1.2819    4.5304   -1.9765 N   0  0  0  0  0  0  0  0  0  0  0  0
    0.8482    5.6779   -2.5693 N   0  0  0  0  0  4  0  0  0  0  0  0
   -0.3547    5.8554   -2.7169 O   0  0  0  0  0  1  0  0  0  0  0  0
    1.7927    6.3993   -2.8842 O   0  0  0  0  0  0  0  0  0  0  0  0
   -0.1501    0.5605   -1.4848 C   0  0  0  0  0  0  0  0  0  0  0  0
   -0.1418    1.6335    0.8115 C   0  0  0  0  0  0  0  0  0  0  0  0
   -2.7313   -2.3035   -3.6502 H   0  0  0  0  0  0  0  0  0  0  0  0
   -2.3853    0.1074    0.0580 H   0  0  0  0  0  0  0  0  0  0  0  0
   -1.9009   -1.3677    0.8252 H   0  0  0  0  0  0  0  0  0  0  0  0
   -2.4270    0.7104    4.7165 H   0  0  0  0  0  0  0  0  0  0  0  0
    0.2458   -1.5076    2.2203 H   0  0  0  0  0  0  0  0  0  0  0  0
    1.1715   -0.0769    2.5343 H   0  0  0  0  0  0  0  0  0  0  0  0
    4.2584   -3.0058    1.8472 H   0  0  0  0  0  0  0  0  0  0  0  0
    0.3019   -2.5924   -0.0878 H   0  0  0  0  0  0  0  0  0  0  0  0
    1.1445   -1.8663   -1.4144 H   0  0  0  0  0  0  0  0  0  0  0  0
    2.5327    1.0233    0.6635 H   0  0  0  0  0  0  0  0  0  0  0  0
    2.5474    0.3599   -0.9359 H   0  0  0  0  0  0  0  0  0  0  0  0
    2.2789    4.4628   -1.9062 H   0  0  0  0  0  0  0  0  0  0  0  0
   -1.0143    1.1370   -1.8350 H   0  0  0  0  0  0  0  0  0  0  0  0
    0.4388    0.3790   -2.3947 H   0  0  0  0  0  0  0  0  0  0  0  0
   -0.9765    2.3046    0.5891 H   0  0  0  0  0  0  0  0  0  0  0  0
    0.4568    2.1812    1.5517 H   0  0  0  0  0  0  0  0  0  0  0  0
  1  2  2  0
  2  3  1  0
  3  4  1  0
  4  5  1  0
  4  6  2  0
  2  7  1  0
  7  8  1  0
  8  9  1  0
  9 10  1  0
 10 11  1  0
 11 12  1  0
 12 13  2  0
 12 14  1  0
 14 15  1  0
 15 16  1  0
 15 17  2  0
 10 18  1  0
 18 19  1  0
 19 20  1  0
 20 21  1  0
 21 22  2  0
 21 23  1  0
 23 24  1  0
 24 25  1  0
 24 26  2  0
 19 27  1  0
 19 28  1  0
 28 29  1  0
 29 30  1  0
 30 31  1  0
 31 32  2  0
 31 33  1  0
 33 34  1  0
 34 35  1  0
 34 36  2  0
 29 37  1  0
 29 38  1  0
 27  8  1  0
 37  8  1  0
 38 10  1  0
  3 39  1  0
  9 40  1  0
  9 41  1  0
 14 42  1  0
 18 43  1  0
 18 44  1  0
 23 45  1  0
 27 46  1  0
 27 47  1  0
 28 48  1  0
 28 49  1  0
 33 50  1  0
 37 51  1  0
 37 52  1  0
 38 53  1  0
 38 54  1  0
M  CHG  8   4   1   5  -1  15   1  16  -1  24   1  25  -1  34   1  35  -1
M  END
$$$$
