
     RDKit          3D

 34 35  0  0  0  0  0  0  0  0999 V2000
    0.8372    0.6172   -1.6031 O   0  0  0  0  0  0  0  0  0  0  0  0
    1.4562   -0.1269   -0.8563 C   0  0  0  0  0  0  0  0  0  0  0  0
    0.9198   -1.0973   -0.0655 O   0  0  0  0  0  0  0  0  0  0  0  0
   -0.5338   -1.0219   -0.2345 O   0  0  0  0  0  0  0  0  0  0  0  0
   -1.0137   -0.2853    0.8031 C   0  0  0  0  0  0  0  0  0  0  0  0
   -0.3719    0.1355    1.7533 O   0  0  0  0  0  0  0  0  0  0  0  0
   -2.4748   -0.0493    0.6411 C   0  0  0  0  0  0  0  0  0  0  0  0
   -3.1634    0.5552    1.7047 C   0  0  0  0  0  0  0  0  0  0  0  0
   -4.5388    0.8088    1.5953 C   0  0  0  0  0  0  0  0  0  0  0  0
   -5.2523    1.4379    2.7162 N   0  0  0  0  0  4  0  0  0  0  0  0
   -4.6049    1.6880    3.7407 O   0  0  0  0  0  1  0  0  0  0  0  0
   -6.4579    1.6742    2.5656 O   0  0  0  0  0  0  0  0  0  0  0  0
   -5.2409    0.4678    0.4324 C   0  0  0  0  0  0  0  0  0  0  0  0
   -4.5444   -0.1318   -0.6250 C   0  0  0  0  0  0  0  0  0  0  0  0
   -5.2657   -0.4976   -1.8524 N   0  0  0  0  0  4  0  0  0  0  0  0
   -6.4366   -0.1133   -1.9641 O   0  0  0  0  0  1  0  0  0  0  0  0
   -4.6572   -1.1717   -2.6935 O   0  0  0  0  0  0  0  0  0  0  0  0
   -3.1675   -0.3910   -0.5300 C   0  0  0  0  0  0  0  0  0  0  0  0
    2.9363   -0.0935   -0.7058 C   0  0  0  0  0  0  0  0  0  0  0  0
    3.6722    0.6985   -1.6017 C   0  0  0  0  0  0  0  0  0  0  0  0
    5.0658    0.7724   -1.5059 C   0  0  0  0  0  0  0  0  0  0  0  0
    5.7278    0.0514   -0.5038 C   0  0  0  0  0  0  0  0  0  0  0  0
    7.1914    0.1247   -0.3981 N   0  0  0  0  0  4  0  0  0  0  0  0
    7.7371   -0.5379    0.4952 O   0  0  0  0  0  1  0  0  0  0  0  0
    7.7918    0.8425   -1.2099 O   0  0  0  0  0  0  0  0  0  0  0  0
    5.0037   -0.7381    0.4001 C   0  0  0  0  0  0  0  0  0  0  0  0
    3.6091   -0.8078    0.2980 C   0  0  0  0  0  0  0  0  0  0  0  0
   -2.6193    0.8259    2.6109 H   0  0  0  0  0  0  0  0  0  0  0  0
   -6.3096    0.6651    0.3511 H   0  0  0  0  0  0  0  0  0  0  0  0
   -2.6406   -0.8449   -1.3690 H   0  0  0  0  0  0  0  0  0  0  0  0
    3.1616    1.2641   -2.3810 H   0  0  0  0  0  0  0  0  0  0  0  0
    5.6133    1.3929   -2.2134 H   0  0  0  0  0  0  0  0  0  0  0  0
    5.5053   -1.2986    1.1876 H   0  0  0  0  0  0  0  0  0  0  0  0
    3.0648   -1.4166    1.0178 H   0  0  0  0  0  0  0  0  0  0  0  0
  1  2  2  0
  2  3  1  0
  3  4  1  0
  4  5  1  0
  5  6  2  0
  5  7  1  0
  7  8  2  0
  8  9  1  0
  9 10  1  0
 10 11  1  0
 10 12  2  0
  9 13  2  0
 13 14  1  0
 14 15  1  0
 15 16  1  0
 15 17  2  0
 14 18  2  0
  2 19  1  0
 19 20  2  0
 20 21  1  0
 21 22  2  0
 22 23  1  0
 23 24  1  0
 23 25  2  0
 22 26  1  0
 26 27  2  0
 18  7  1  0
 27 19  1  0
  8 28  1  0
 13 29  1  0
 18 30  1  0
 20 31  1  0
 21 32  1  0
 26 33  1  0
 27 34  1  0
M  CHG  6  10   1  11  -1  15   1  16  -1  23   1  24  -1
M  END
$$$$
