
     RDKit          3D

 48 50  0  0  0  0  0  0  0  0999 V2000
   -3.5650   -1.7256   -0.1983 O   0  0  0  0  0  0  0  0  0  0  0  0
   -2.8759   -0.8010    0.2072 C   0  0  0  0  0  0  0  0  0  0  0  0
   -3.3077    0.2655    0.9348 O   0  0  0  0  0  0  0  0  0  0  0  0
   -4.7623    0.1367    1.0488 O   0  0  0  0  0  0  0  0  0  0  0  0
   -5.3046    0.9655    0.1156 C   0  0  0  0  0  0  0  0  0  0  0  0
   -4.6960    1.7422   -0.6055 O   0  0  0  0  0  0  0  0  0  0  0  0
   -6.7856    0.8207    0.0976 C   0  0  0  0  0  0  0  0  0  0  0  0
   -7.5323    1.7663   -0.6230 C   0  0  0  0  0  0  0  0  0  0  0  0
   -8.9272    1.6769   -0.6794 C   0  0  0  0  0  0  0  0  0  0  0  0
   -9.5793    0.6313   -0.0130 C   0  0  0  0  0  0  0  0  0  0  0  0
  -11.0441    0.5325   -0.0680 N   0  0  0  0  0  4  0  0  0  0  0  0
  -11.5805   -0.4059    0.5375 O   0  0  0  0  0  1  0  0  0  0  0  0
  -11.6552    1.3948   -0.7145 O   0  0  0  0  0  0  0  0  0  0  0  0
   -8.8442   -0.3228    0.7039 C   0  0  0  0  0  0  0  0  0  0  0  0
   -7.4485   -0.2269    0.7561 C   0  0  0  0  0  0  0  0  0  0  0  0
   -1.4090   -0.7088   -0.0224 C   0  0  0  0  0  0  0  0  0  0  0  0
   -0.6731    0.4524    0.2533 C   0  0  0  0  0  0  0  0  0  0  0  0
    0.7067    0.4880    0.0148 C   0  0  0  0  0  0  0  0  0  0  0  0
    1.3634   -0.6354   -0.5076 C   0  0  0  0  0  0  0  0  0  0  0  0
    2.8269   -0.6557   -0.7735 C   0  0  0  0  0  0  0  0  0  0  0  0
    3.4498   -1.6735   -1.0388 O   0  0  0  0  0  0  0  0  0  0  0  0
    3.3384    0.6034   -0.6950 O   0  0  0  0  0  0  0  0  0  0  0  0
    4.7857    0.4829   -0.8854 O   0  0  0  0  0  0  0  0  0  0  0  0
    5.3495    0.5208    0.3526 C   0  0  0  0  0  0  0  0  0  0  0  0
    4.7673    0.7211    1.4084 O   0  0  0  0  0  0  0  0  0  0  0  0
    6.8184    0.3027    0.2561 C   0  0  0  0  0  0  0  0  0  0  0  0
    7.5984    0.5493    1.3972 C   0  0  0  0  0  0  0  0  0  0  0  0
    8.9834    0.3555    1.3668 C   0  0  0  0  0  0  0  0  0  0  0  0
    9.5918   -0.0925    0.1871 C   0  0  0  0  0  0  0  0  0  0  0  0
   11.0461   -0.2977    0.1489 N   0  0  0  0  0  4  0  0  0  0  0  0
   11.5457   -0.6755   -0.9201 O   0  0  0  0  0  1  0  0  0  0  0  0
   11.6858   -0.0782    1.1870 O   0  0  0  0  0  0  0  0  0  0  0  0
    8.8229   -0.3486   -0.9566 C   0  0  0  0  0  0  0  0  0  0  0  0
    7.4374   -0.1521   -0.9189 C   0  0  0  0  0  0  0  0  0  0  0  0
    0.6266   -1.7954   -0.7822 C   0  0  0  0  0  0  0  0  0  0  0  0
   -0.7513   -1.8305   -0.5453 C   0  0  0  0  0  0  0  0  0  0  0  0
   -7.0288    2.5789   -1.1463 H   0  0  0  0  0  0  0  0  0  0  0  0
   -9.4833    2.4232   -1.2442 H   0  0  0  0  0  0  0  0  0  0  0  0
   -9.3377   -1.1446    1.2206 H   0  0  0  0  0  0  0  0  0  0  0  0
   -6.8945   -0.9860    1.3059 H   0  0  0  0  0  0  0  0  0  0  0  0
   -1.1557    1.3442    0.6488 H   0  0  0  0  0  0  0  0  0  0  0  0
    1.2522    1.3999    0.2506 H   0  0  0  0  0  0  0  0  0  0  0  0
    7.1285    0.8936    2.3183 H   0  0  0  0  0  0  0  0  0  0  0  0
    9.5660    0.5547    2.2647 H   0  0  0  0  0  0  0  0  0  0  0  0
    9.2819   -0.7042   -1.8778 H   0  0  0  0  0  0  0  0  0  0  0  0
    6.8557   -0.3709   -1.8129 H   0  0  0  0  0  0  0  0  0  0  0  0
    1.1208   -2.6793   -1.1841 H   0  0  0  0  0  0  0  0  0  0  0  0
   -1.3075   -2.7399   -0.7697 H   0  0  0  0  0  0  0  0  0  0  0  0
  1  2  2  0
  2  3  1  0
  3  4  1  0
  4  5  1  0
  5  6  2  0
  5  7  1  0
  7  8  2  0
  8  9  1  0
  9 10  2  0
 10 11  1  0
 11 12  1  0
 11 13  2  0
 10 14  1  0
 14 15  2  0
  2 16  1  0
 16 17  2  0
 17 18  1  0
 18 19  2  0
 19 20  1  0
 20 21  2  0
 20 22  1  0
 22 23  1  0
 23 24  1  0
 24 25  2  0
 24 26  1  0
 26 27  2  0
 27 28  1  0
 28 29  2  0
 29 30  1  0
 30 31  1  0
 30 32  2  0
 29 33  1  0
 33 34  2  0
 19 35  1  0
 35 36  2  0
 15  7  1  0
 34 26  1  0
 36 16  1  0
  8 37  1  0
  9 38  1  0
 14 39  1  0
 15 40  1  0
 17 41  1  0
 18 42  1  0
 27 43  1  0
 28 44  1  0
 33 45  1  0
 34 46  1  0
 35 47  1  0
 36 48  1  0
M  CHG  4  11   1  12  -1  30   1  31  -1
M  END
$$$$
