
     RDKit          3D

 50 50  0  0  0  0  0  0  0  0999 V2000
    4.4738    0.8657   -1.0931 C   0  0  0  0  0  0  0  0  0  0  0  0
    3.9411    1.1643    0.3120 C   0  0  0  0  0  0  0  0  0  0  0  0
    3.2246    2.5183    0.3576 C   0  0  0  0  0  0  0  0  0  0  0  0
    5.1113    1.1784    1.3022 C   0  0  0  0  0  0  0  0  0  0  0  0
    3.0607    0.1219    0.7653 O   0  0  0  0  0  0  0  0  0  0  0  0
    1.9246    0.0709   -0.1542 O   0  0  0  0  0  0  0  0  0  0  0  0
    1.6601   -1.3278   -0.4219 C   0  0  0  0  0  0  0  0  0  0  0  0
    2.8505   -2.1002   -0.8363 N   0  0  0  0  0  0  0  0  0  0  0  0
    2.7235   -3.3202   -1.0231 N   0  0  0  0  0  4  0  0  0  0  0  0
    2.6091   -4.4402   -1.1980 N   0  0  0  0  0  2  0  0  0  0  0  0
    1.0189   -1.9321    0.8465 C   0  0  0  0  0  0  0  0  0  0  0  0
   -0.2850   -1.2230    1.2251 C   0  0  0  0  0  0  0  0  0  0  0  0
   -1.3172   -1.2038    0.0787 C   0  0  0  0  0  0  0  0  0  0  0  0
   -1.6962   -2.6015   -0.2108 N   0  0  0  0  0  0  0  0  0  0  0  0
   -2.6621   -3.0445    0.4352 N   0  0  0  0  0  4  0  0  0  0  0  0
   -3.5333   -3.4749    1.0310 N   0  0  0  0  0  2  0  0  0  0  0  0
   -2.3657   -0.3133    0.5123 O   0  0  0  0  0  0  0  0  0  0  0  0
   -3.4265   -0.3821   -0.4928 O   0  0  0  0  0  0  0  0  0  0  0  0
   -4.1466    0.8614   -0.4505 C   0  0  0  0  0  0  0  0  0  0  0  0
   -3.2247    2.0345   -0.7977 C   0  0  0  0  0  0  0  0  0  0  0  0
   -5.2396    0.7442   -1.5186 C   0  0  0  0  0  0  0  0  0  0  0  0
   -4.7990    1.0511    0.9226 C   0  0  0  0  0  0  0  0  0  0  0  0
   -0.6710   -0.6230   -1.1962 C   0  0  0  0  0  0  0  0  0  0  0  0
    0.6402   -1.3186   -1.5794 C   0  0  0  0  0  0  0  0  0  0  0  0
    3.6675    0.8531   -1.8343 H   0  0  0  0  0  0  0  0  0  0  0  0
    5.2079    1.6144   -1.4094 H   0  0  0  0  0  0  0  0  0  0  0  0
    4.9495   -0.1206   -1.1285 H   0  0  0  0  0  0  0  0  0  0  0  0
    2.7889    2.6945    1.3476 H   0  0  0  0  0  0  0  0  0  0  0  0
    3.9083    3.3417    0.1256 H   0  0  0  0  0  0  0  0  0  0  0  0
    2.3970    2.5574   -0.3590 H   0  0  0  0  0  0  0  0  0  0  0  0
    4.7560    1.3598    2.3233 H   0  0  0  0  0  0  0  0  0  0  0  0
    5.8477    1.9486    1.0501 H   0  0  0  0  0  0  0  0  0  0  0  0
    5.6183    0.2066    1.3198 H   0  0  0  0  0  0  0  0  0  0  0  0
    0.8147   -3.0010    0.7120 H   0  0  0  0  0  0  0  0  0  0  0  0
    1.7123   -1.8576    1.6933 H   0  0  0  0  0  0  0  0  0  0  0  0
   -0.7170   -1.7105    2.1089 H   0  0  0  0  0  0  0  0  0  0  0  0
   -0.0683   -0.1941    1.5421 H   0  0  0  0  0  0  0  0  0  0  0  0
   -3.7819    2.9747   -0.8666 H   0  0  0  0  0  0  0  0  0  0  0  0
   -2.4398    2.1643   -0.0447 H   0  0  0  0  0  0  0  0  0  0  0  0
   -2.7166    1.8603   -1.7528 H   0  0  0  0  0  0  0  0  0  0  0  0
   -5.8562    1.6477   -1.5699 H   0  0  0  0  0  0  0  0  0  0  0  0
   -4.8006    0.5676   -2.5075 H   0  0  0  0  0  0  0  0  0  0  0  0
   -5.8943   -0.1110   -1.3144 H   0  0  0  0  0  0  0  0  0  0  0  0
   -4.0470    1.1672    1.7107 H   0  0  0  0  0  0  0  0  0  0  0  0
   -5.4004    0.1754    1.1915 H   0  0  0  0  0  0  0  0  0  0  0  0
   -5.4435    1.9364    0.9412 H   0  0  0  0  0  0  0  0  0  0  0  0
   -0.4939    0.4519   -1.0607 H   0  0  0  0  0  0  0  0  0  0  0  0
   -1.3680   -0.6996   -2.0407 H   0  0  0  0  0  0  0  0  0  0  0  0
    0.4192   -2.3394   -1.9141 H   0  0  0  0  0  0  0  0  0  0  0  0
    1.0689   -0.7931   -2.4426 H   0  0  0  0  0  0  0  0  0  0  0  0
  1  2  1  0
  2  3  1  0
  2  4  1  0
  2  5  1  0
  5  6  1  0
  6  7  1  0
  7  8  1  0
  8  9  2  0
  9 10  2  0
  7 11  1  0
 11 12  1  0
 12 13  1  0
 13 14  1  0
 14 15  2  0
 15 16  2  0
 13 17  1  0
 17 18  1  0
 18 19  1  0
 19 20  1  0
 19 21  1  0
 19 22  1  0
 13 23  1  0
 23 24  1  0
 24  7  1  0
  1 25  1  0
  1 26  1  0
  1 27  1  0
  3 28  1  0
  3 29  1  0
  3 30  1  0
  4 31  1  0
  4 32  1  0
  4 33  1  0
 11 34  1  0
 11 35  1  0
 12 36  1  0
 12 37  1  0
 20 38  1  0
 20 39  1  0
 20 40  1  0
 21 41  1  0
 21 42  1  0
 21 43  1  0
 22 44  1  0
 22 45  1  0
 22 46  1  0
 23 47  1  0
 23 48  1  0
 24 49  1  0
 24 50  1  0
M  CHG  4   9   1  10  -1  15   1  16  -1
M  END
$$$$
