
     RDKit          3D

 50 50  0  0  0  0  0  0  0  0999 V2000
    3.8612   -1.1868    2.3120 C   0  0  0  0  0  0  0  0  0  0  0  0
    4.0378   -1.2337    0.7907 C   0  0  0  0  0  0  0  0  0  0  0  0
    4.7890   -0.0015    0.2767 C   0  0  0  0  0  0  0  0  0  0  0  0
    4.8186   -2.4967    0.4106 C   0  0  0  0  0  0  0  0  0  0  0  0
    2.7616   -1.3538    0.1406 O   0  0  0  0  0  0  0  0  0  0  0  0
    1.9759   -0.1714    0.4943 O   0  0  0  0  0  0  0  0  0  0  0  0
    1.2900    0.2254   -0.7042 C   0  0  0  0  0  0  0  0  0  0  0  0
    0.2957   -0.7240   -1.2214 N   0  0  0  0  0  0  0  0  0  0  0  0
    0.0231   -0.5913   -2.4233 N   0  0  0  0  0  4  0  0  0  0  0  0
   -0.2220   -0.4679   -3.5296 N   0  0  0  0  0  2  0  0  0  0  0  0
    0.7086    1.6140   -0.4431 C   0  0  0  0  0  0  0  0  0  0  0  0
    1.3996    2.7132   -1.0033 C   0  0  0  0  0  0  0  0  0  0  0  0
    0.9525    4.0221   -0.8309 C   0  0  0  0  0  0  0  0  0  0  0  0
   -0.1957    4.2657   -0.0924 C   0  0  0  0  0  0  0  0  0  0  0  0
   -0.8901    3.2008    0.4797 C   0  0  0  0  0  0  0  0  0  0  0  0
   -0.4543    1.8639    0.3309 C   0  0  0  0  0  0  0  0  0  0  0  0
   -1.3028    0.7796    0.9976 C   0  0  0  0  0  0  0  0  0  0  0  0
   -0.5039   -0.0901    1.8691 N   0  0  0  0  0  0  0  0  0  0  0  0
   -0.7534   -1.3030    1.7962 N   0  0  0  0  0  4  0  0  0  0  0  0
   -0.9733   -2.4215    1.7617 N   0  0  0  0  0  2  0  0  0  0  0  0
   -2.1081    0.1859   -0.0360 O   0  0  0  0  0  0  0  0  0  0  0  0
   -3.3285   -0.2883    0.6174 O   0  0  0  0  0  0  0  0  0  0  0  0
   -4.1911   -0.8114   -0.4068 C   0  0  0  0  0  0  0  0  0  0  0  0
   -5.4842   -1.2194    0.3080 C   0  0  0  0  0  0  0  0  0  0  0  0
   -4.5090    0.2644   -1.4505 C   0  0  0  0  0  0  0  0  0  0  0  0
   -3.5595   -2.0478   -1.0529 C   0  0  0  0  0  0  0  0  0  0  0  0
    3.3412   -0.2756    2.6268 H   0  0  0  0  0  0  0  0  0  0  0  0
    3.2529   -2.0299    2.6589 H   0  0  0  0  0  0  0  0  0  0  0  0
    4.8264   -1.2164    2.8286 H   0  0  0  0  0  0  0  0  0  0  0  0
    4.2755    0.9254    0.5538 H   0  0  0  0  0  0  0  0  0  0  0  0
    4.8482   -0.0098   -0.8174 H   0  0  0  0  0  0  0  0  0  0  0  0
    5.8057    0.0455    0.6814 H   0  0  0  0  0  0  0  0  0  0  0  0
    4.2843   -3.3976    0.7340 H   0  0  0  0  0  0  0  0  0  0  0  0
    4.9263   -2.5755   -0.6774 H   0  0  0  0  0  0  0  0  0  0  0  0
    5.8176   -2.5072    0.8588 H   0  0  0  0  0  0  0  0  0  0  0  0
    2.0767    0.3284   -1.4663 H   0  0  0  0  0  0  0  0  0  0  0  0
    2.3065    2.5542   -1.5849 H   0  0  0  0  0  0  0  0  0  0  0  0
    1.5014    4.8490   -1.2739 H   0  0  0  0  0  0  0  0  0  0  0  0
   -0.5524    5.2836    0.0428 H   0  0  0  0  0  0  0  0  0  0  0  0
   -1.7890    3.4231    1.0532 H   0  0  0  0  0  0  0  0  0  0  0  0
   -1.9978    1.2946    1.6754 H   0  0  0  0  0  0  0  0  0  0  0  0
   -5.9402   -0.3583    0.8102 H   0  0  0  0  0  0  0  0  0  0  0  0
   -6.2167   -1.6426   -0.3872 H   0  0  0  0  0  0  0  0  0  0  0  0
   -5.2802   -1.9602    1.0902 H   0  0  0  0  0  0  0  0  0  0  0  0
   -4.8833    1.1751   -0.9691 H   0  0  0  0  0  0  0  0  0  0  0  0
   -5.2583   -0.0838   -2.1692 H   0  0  0  0  0  0  0  0  0  0  0  0
   -3.6156    0.5540   -2.0143 H   0  0  0  0  0  0  0  0  0  0  0  0
   -2.6341   -1.7961   -1.5808 H   0  0  0  0  0  0  0  0  0  0  0  0
   -3.2928   -2.7904   -0.2925 H   0  0  0  0  0  0  0  0  0  0  0  0
   -4.2400   -2.5157   -1.7722 H   0  0  0  0  0  0  0  0  0  0  0  0
  1  2  1  0
  2  3  1  0
  2  4  1  0
  2  5  1  0
  5  6  1  0
  6  7  1  0
  7  8  1  0
  8  9  2  0
  9 10  2  0
  7 11  1  0
 11 12  2  0
 12 13  1  0
 13 14  2  0
 14 15  1  0
 15 16  2  0
 16 17  1  0
 17 18  1  0
 18 19  2  0
 19 20  2  0
 17 21  1  0
 21 22  1  0
 22 23  1  0
 23 24  1  0
 23 25  1  0
 23 26  1  0
 16 11  1  0
  1 27  1  0
  1 28  1  0
  1 29  1  0
  3 30  1  0
  3 31  1  0
  3 32  1  0
  4 33  1  0
  4 34  1  0
  4 35  1  0
  7 36  1  0
 12 37  1  0
 13 38  1  0
 14 39  1  0
 15 40  1  0
 17 41  1  0
 24 42  1  0
 24 43  1  0
 24 44  1  0
 25 45  1  0
 25 46  1  0
 25 47  1  0
 26 48  1  0
 26 49  1  0
 26 50  1  0
M  CHG  4   9   1  10  -1  19   1  20  -1
M  END
$$$$
