
     RDKit          3D

 66 67  0  0  0  0  0  0  0  0999 V2000
   -6.5254    2.5297   -0.2855 C   0  0  0  0  0  0  0  0  0  0  0  0
   -6.5143    1.0020   -0.1629 C   0  0  0  0  0  0  0  0  0  0  0  0
   -7.4175    0.5800    0.9997 C   0  0  0  0  0  0  0  0  0  0  0  0
   -6.9823    0.3857   -1.4854 C   0  0  0  0  0  0  0  0  0  0  0  0
   -5.1496    0.6444    0.1128 O   0  0  0  0  0  0  0  0  0  0  0  0
   -5.0887   -0.8132    0.2109 O   0  0  0  0  0  0  0  0  0  0  0  0
   -3.7085   -1.2136    0.0759 C   0  0  0  0  0  0  0  0  0  0  0  0
   -3.5082   -2.6774    0.2014 N   0  0  0  0  0  0  0  0  0  0  0  0
   -4.3041   -3.2653    0.9532 N   0  0  0  0  0  4  0  0  0  0  0  0
   -5.0220   -3.8170    1.6453 N   0  0  0  0  0  2  0  0  0  0  0  0
   -2.8572   -0.5510    1.1805 C   0  0  0  0  0  0  0  0  0  0  0  0
   -1.3625   -0.8765    1.0805 C   0  0  0  0  0  0  0  0  0  0  0  0
   -0.8497   -1.0188   -0.3683 C   0  0  0  0  0  0  0  0  0  0  0  0
    0.6479   -0.6401   -0.5510 C   0  0  0  0  0  0  0  0  0  0  0  0
    1.5586   -1.4932    0.3496 C   0  0  0  0  0  0  0  0  0  0  0  0
    3.0382   -1.1650    0.1448 C   0  0  0  0  0  0  0  0  0  0  0  0
    3.3609    0.3298    0.3376 C   0  0  0  0  0  0  0  0  0  0  0  0
    3.0877    0.6788    1.7462 N   0  0  0  0  0  0  0  0  0  0  0  0
    3.7195    1.6480    2.1957 N   0  0  0  0  0  4  0  0  0  0  0  0
    4.2776    2.5472    2.6199 N   0  0  0  0  0  2  0  0  0  0  0  0
    4.6962    0.5752   -0.1529 O   0  0  0  0  0  0  0  0  0  0  0  0
    5.6150   -0.1056    0.7592 O   0  0  0  0  0  0  0  0  0  0  0  0
    6.9518    0.1429    0.2937 C   0  0  0  0  0  0  0  0  0  0  0  0
    7.2681    1.6411    0.3518 C   0  0  0  0  0  0  0  0  0  0  0  0
    7.1425   -0.4139   -1.1204 C   0  0  0  0  0  0  0  0  0  0  0  0
    7.8740   -0.6078    1.2608 C   0  0  0  0  0  0  0  0  0  0  0  0
    2.4293    1.1689   -0.5594 C   0  0  0  0  0  0  0  0  0  0  0  0
    0.9454    0.8578   -0.3611 C   0  0  0  0  0  0  0  0  0  0  0  0
   -1.7671   -0.2752   -1.3490 C   0  0  0  0  0  0  0  0  0  0  0  0
   -3.1970   -0.8295   -1.3364 C   0  0  0  0  0  0  0  0  0  0  0  0
   -5.8539    2.8612   -1.0861 H   0  0  0  0  0  0  0  0  0  0  0  0
   -7.5300    2.9122   -0.4952 H   0  0  0  0  0  0  0  0  0  0  0  0
   -6.1612    2.9984    0.6362 H   0  0  0  0  0  0  0  0  0  0  0  0
   -7.0304    0.9655    1.9497 H   0  0  0  0  0  0  0  0  0  0  0  0
   -8.4415    0.9451    0.8662 H   0  0  0  0  0  0  0  0  0  0  0  0
   -7.4612   -0.5104    1.0995 H   0  0  0  0  0  0  0  0  0  0  0  0
   -7.9877    0.7288   -1.7523 H   0  0  0  0  0  0  0  0  0  0  0  0
   -6.2971    0.6467   -2.2997 H   0  0  0  0  0  0  0  0  0  0  0  0
   -7.0043   -0.7085   -1.4340 H   0  0  0  0  0  0  0  0  0  0  0  0
   -3.2296   -0.8357    2.1732 H   0  0  0  0  0  0  0  0  0  0  0  0
   -2.9709    0.5397    1.1391 H   0  0  0  0  0  0  0  0  0  0  0  0
   -1.1634   -1.8155    1.6133 H   0  0  0  0  0  0  0  0  0  0  0  0
   -0.8151   -0.1039    1.6303 H   0  0  0  0  0  0  0  0  0  0  0  0
   -0.9211   -2.0859   -0.6265 H   0  0  0  0  0  0  0  0  0  0  0  0
    0.9085   -0.8864   -1.5912 H   0  0  0  0  0  0  0  0  0  0  0  0
    1.3981   -2.5568    0.1356 H   0  0  0  0  0  0  0  0  0  0  0  0
    1.3025   -1.3450    1.4049 H   0  0  0  0  0  0  0  0  0  0  0  0
    3.3461   -1.4766   -0.8625 H   0  0  0  0  0  0  0  0  0  0  0  0
    3.6339   -1.7737    0.8371 H   0  0  0  0  0  0  0  0  0  0  0  0
    8.3135    1.8406    0.0909 H   0  0  0  0  0  0  0  0  0  0  0  0
    7.0790    2.0393    1.3556 H   0  0  0  0  0  0  0  0  0  0  0  0
    6.6343    2.2120   -0.3354 H   0  0  0  0  0  0  0  0  0  0  0  0
    8.1840   -0.3305   -1.4455 H   0  0  0  0  0  0  0  0  0  0  0  0
    6.8451   -1.4676   -1.1661 H   0  0  0  0  0  0  0  0  0  0  0  0
    6.5205    0.1185   -1.8492 H   0  0  0  0  0  0  0  0  0  0  0  0
    8.9290   -0.4826    0.9958 H   0  0  0  0  0  0  0  0  0  0  0  0
    7.6424   -1.6792    1.2666 H   0  0  0  0  0  0  0  0  0  0  0  0
    7.7303   -0.2553    2.2888 H   0  0  0  0  0  0  0  0  0  0  0  0
    2.6021    2.2382   -0.3846 H   0  0  0  0  0  0  0  0  0  0  0  0
    2.6911    1.0019   -1.6133 H   0  0  0  0  0  0  0  0  0  0  0  0
    0.6371    1.1953    0.6342 H   0  0  0  0  0  0  0  0  0  0  0  0
    0.3749    1.4518   -1.0840 H   0  0  0  0  0  0  0  0  0  0  0  0
   -1.3709   -0.3382   -2.3692 H   0  0  0  0  0  0  0  0  0  0  0  0
   -1.8063    0.7904   -1.0922 H   0  0  0  0  0  0  0  0  0  0  0  0
   -3.2366   -1.7092   -1.9931 H   0  0  0  0  0  0  0  0  0  0  0  0
   -3.8499   -0.0930   -1.8182 H   0  0  0  0  0  0  0  0  0  0  0  0
  1  2  1  0
  2  3  1  0
  2  4  1  0
  2  5  1  0
  5  6  1  0
  6  7  1  0
  7  8  1  0
  8  9  2  0
  9 10  2  0
  7 11  1  0
 11 12  1  0
 12 13  1  0
 13 14  1  0
 14 15  1  0
 15 16  1  0
 16 17  1  0
 17 18  1  0
 18 19  2  0
 19 20  2  0
 17 21  1  0
 21 22  1  0
 22 23  1  0
 23 24  1  0
 23 25  1  0
 23 26  1  0
 17 27  1  0
 27 28  1  0
 13 29  1  0
 29 30  1  0
 28 14  1  0
 30  7  1  0
  1 31  1  0
  1 32  1  0
  1 33  1  0
  3 34  1  0
  3 35  1  0
  3 36  1  0
  4 37  1  0
  4 38  1  0
  4 39  1  0
 11 40  1  0
 11 41  1  0
 12 42  1  0
 12 43  1  0
 13 44  1  0
 14 45  1  0
 15 46  1  0
 15 47  1  0
 16 48  1  0
 16 49  1  0
 24 50  1  0
 24 51  1  0
 24 52  1  0
 25 53  1  0
 25 54  1  0
 25 55  1  0
 26 56  1  0
 26 57  1  0
 26 58  1  0
 27 59  1  0
 27 60  1  0
 28 61  1  0
 28 62  1  0
 29 63  1  0
 29 64  1  0
 30 65  1  0
 30 66  1  0
M  CHG  4   9   1  10  -1  19   1  20  -1
M  END
$$$$
