
     RDKit          3D

 39 38  0  0  0  0  0  0  0  0999 V2000
    0.4230   -0.0698   -0.4409 O   0  0  0  0  0  0  0  0  0  0  0  0
    1.2293    0.4057    0.3448 C   0  0  0  0  0  0  0  0  0  0  0  0
    1.0677    1.7096    1.0819 C   0  0  0  0  0  0  0  0  0  0  0  0
   -0.2571    2.3914    0.7162 C   0  0  0  0  0  0  0  0  0  0  0  0
   -1.4054    1.6536    1.2640 N   0  0  0  0  0  0  0  0  0  0  0  0
   -2.3813    1.1425    0.2603 C   0  0  0  0  0  0  0  0  0  0  0  0
   -3.0575   -0.2554    0.3861 C   0  0  0  0  0  0  0  0  0  0  0  0
   -3.6444   -0.6855   -0.9289 N   0  0  0  0  0  4  0  0  0  0  0  0
   -4.4500   -1.6295   -0.9525 O   0  0  0  0  0  1  0  0  0  0  0  0
   -3.3180   -0.0493   -1.9446 O   0  0  0  0  0  0  0  0  0  0  0  0
   -4.2343   -0.2602    1.2872 N   0  0  0  0  0  4  0  0  0  0  0  0
   -4.3363   -1.1305    2.1629 O   0  0  0  0  0  1  0  0  0  0  0  0
   -5.0855    0.6259    1.0912 O   0  0  0  0  0  0  0  0  0  0  0  0
   -2.0906   -1.3033    0.8080 N   0  0  0  0  0  4  0  0  0  0  0  0
   -1.4543   -1.1067    1.8582 O   0  0  0  0  0  1  0  0  0  0  0  0
   -1.9000   -2.2961    0.0893 O   0  0  0  0  0  0  0  0  0  0  0  0
   -1.8577    2.0427    2.5005 N   0  0  0  0  0  4  0  0  0  0  0  0
   -2.9803    1.6452    2.7980 O   0  0  0  0  0  1  0  0  0  0  0  0
   -1.0876    2.7009    3.1985 O   0  0  0  0  0  0  0  0  0  0  0  0
    2.4168   -0.1847    0.6398 O   0  0  0  0  0  0  0  0  0  0  0  0
    2.6807   -1.4809    0.0291 C   0  0  0  0  0  0  0  0  0  0  0  0
    3.0989   -1.4682   -1.4418 C   0  0  0  0  0  0  0  0  0  0  0  0
    3.8297   -2.7082   -1.8294 N   0  0  0  0  0  4  0  0  0  0  0  0
    3.9834   -3.5847   -0.9642 O   0  0  0  0  0  1  0  0  0  0  0  0
    4.2320   -2.8224   -2.9985 O   0  0  0  0  0  0  0  0  0  0  0  0
    1.9533   -1.4675   -2.3827 N   0  0  0  0  0  4  0  0  0  0  0  0
    1.9414   -0.6935   -3.3499 O   0  0  0  0  0  1  0  0  0  0  0  0
    1.0607   -2.3051   -2.1690 O   0  0  0  0  0  0  0  0  0  0  0  0
    4.0151   -0.3246   -1.6702 N   0  0  0  0  0  4  0  0  0  0  0  0
    3.5231    0.8087   -1.8126 O   0  0  0  0  0  1  0  0  0  0  0  0
    5.2352   -0.5172   -1.5485 O   0  0  0  0  0  0  0  0  0  0  0  0
    1.1333    1.5222    2.1585 H   0  0  0  0  0  0  0  0  0  0  0  0
    1.8961    2.3645    0.7915 H   0  0  0  0  0  0  0  0  0  0  0  0
   -0.2457    3.4328    1.0621 H   0  0  0  0  0  0  0  0  0  0  0  0
   -0.3179    2.4775   -0.3767 H   0  0  0  0  0  0  0  0  0  0  0  0
   -3.1346    1.9235    0.0805 H   0  0  0  0  0  0  0  0  0  0  0  0
   -1.8139    1.1096   -0.6776 H   0  0  0  0  0  0  0  0  0  0  0  0
    1.8316   -2.1460    0.2338 H   0  0  0  0  0  0  0  0  0  0  0  0
    3.5009   -1.8700    0.6454 H   0  0  0  0  0  0  0  0  0  0  0  0
  1  2  2  0
  2  3  1  0
  3  4  1  0
  4  5  1  0
  5  6  1  0
  6  7  1  0
  7  8  1  0
  8  9  1  0
  8 10  2  0
  7 11  1  0
 11 12  1  0
 11 13  2  0
  7 14  1  0
 14 15  1  0
 14 16  2  0
  5 17  1  0
 17 18  1  0
 17 19  2  0
  2 20  1  0
 20 21  1  0
 21 22  1  0
 22 23  1  0
 23 24  1  0
 23 25  2  0
 22 26  1  0
 26 27  1  0
 26 28  2  0
 22 29  1  0
 29 30  1  0
 29 31  2  0
  3 32  1  0
  3 33  1  0
  4 34  1  0
  4 35  1  0
  6 36  1  0
  6 37  1  0
 21 38  1  0
 21 39  1  0
M  CHG  8   8   1   9  -1  11   1  12  -1  14   1  15  -1  17   1  18  -1
M  CHG  6  23   1  24  -1  26   1  27  -1  29   1  30  -1
M  END
$$$$
