
     RDKit          3D

 42 41  0  0  0  0  0  0  0  0999 V2000
    1.0724   -0.0151   -1.3598 O   0  0  0  0  0  0  0  0  0  0  0  0
    1.5137    0.8454   -0.6126 C   0  0  0  0  0  0  0  0  0  0  0  0
    0.7695    2.0966   -0.2514 C   0  0  0  0  0  0  0  0  0  0  0  0
   -0.5454    1.7546    0.4691 C   0  0  1  0  0  0  0  0  0  0  0  0
   -0.9249    2.8943    1.4230 C   0  0  0  0  0  0  0  0  0  0  0  0
   -0.8472    2.7729    2.6384 O   0  0  0  0  0  0  0  0  0  0  0  0
   -1.3059    4.0573    0.8635 O   0  0  0  0  0  0  0  0  0  0  0  0
   -1.7145    1.2891   -0.3283 N   0  0  0  0  0  0  0  0  0  0  0  0
   -1.8698   -0.1994   -0.4153 C   0  0  0  0  0  0  0  0  0  0  0  0
   -3.1721   -0.8604    0.1035 C   0  0  0  0  0  0  0  0  0  0  0  0
   -3.1265   -2.3438   -0.0521 N   0  0  0  0  0  4  0  0  0  0  0  0
   -2.1706   -2.8240   -0.6817 O   0  0  0  0  0  1  0  0  0  0  0  0
   -4.0215   -3.0345    0.4569 O   0  0  0  0  0  0  0  0  0  0  0  0
   -4.3591   -0.3622   -0.6231 N   0  0  0  0  0  4  0  0  0  0  0  0
   -4.8033   -1.0299   -1.5685 O   0  0  0  0  0  1  0  0  0  0  0  0
   -4.7837    0.7659   -0.3218 O   0  0  0  0  0  0  0  0  0  0  0  0
   -3.3574   -0.6545    1.5633 N   0  0  0  0  0  4  0  0  0  0  0  0
   -4.4964   -0.6757    2.0510 O   0  0  0  0  0  1  0  0  0  0  0  0
   -2.3286   -0.4925    2.2380 O   0  0  0  0  0  0  0  0  0  0  0  0
   -2.0629    2.0066   -1.4549 N   0  0  0  0  0  4  0  0  0  0  0  0
   -1.7276    3.1915   -1.4723 O   0  0  0  0  0  1  0  0  0  0  0  0
   -2.6809    1.3956   -2.3220 O   0  0  0  0  0  0  0  0  0  0  0  0
    2.7137    0.7614    0.0193 O   0  0  0  0  0  0  0  0  0  0  0  0
    3.5410   -0.3938   -0.2970 C   0  0  0  0  0  0  0  0  0  0  0  0
    3.5103   -1.5019    0.7514 C   0  0  0  0  0  0  0  0  0  0  0  0
    4.4915   -2.5729    0.4398 N   0  0  0  0  0  4  0  0  0  0  0  0
    5.0343   -2.5436   -0.6765 O   0  0  0  0  0  1  0  0  0  0  0  0
    4.7399   -3.4320    1.2983 O   0  0  0  0  0  0  0  0  0  0  0  0
    3.9053   -1.0058    2.0895 N   0  0  0  0  0  4  0  0  0  0  0  0
    4.7787   -0.1235    2.1243 O   0  0  0  0  0  1  0  0  0  0  0  0
    3.3838   -1.4908    3.1035 O   0  0  0  0  0  0  0  0  0  0  0  0
    2.1611   -2.1082    0.8082 N   0  0  0  0  0  4  0  0  0  0  0  0
    1.2412   -1.4303    1.3008 O   0  0  0  0  0  1  0  0  0  0  0  0
    1.9707   -3.2016    0.2575 O   0  0  0  0  0  0  0  0  0  0  0  0
    0.6391    2.6881   -1.1617 H   0  0  0  0  0  0  0  0  0  0  0  0
    1.4065    2.7055    0.4035 H   0  0  0  0  0  0  0  0  0  0  0  0
   -0.3011    0.9496    1.1771 H   0  0  0  0  0  0  0  0  0  0  0  0
   -1.3934    4.0666   -0.1169 H   0  0  0  0  0  0  0  0  0  0  0  0
   -1.0303   -0.6648    0.1174 H   0  0  0  0  0  0  0  0  0  0  0  0
   -1.6833   -0.5145   -1.4534 H   0  0  0  0  0  0  0  0  0  0  0  0
    3.2785   -0.7772   -1.2928 H   0  0  0  0  0  0  0  0  0  0  0  0
    4.5553    0.0121   -0.4103 H   0  0  0  0  0  0  0  0  0  0  0  0
  1  2  2  0
  2  3  1  0
  3  4  1  0
  4  5  1  0
  5  6  2  0
  5  7  1  0
  4  8  1  0
  8  9  1  0
  9 10  1  0
 10 11  1  0
 11 12  1  0
 11 13  2  0
 10 14  1  0
 14 15  1  0
 14 16  2  0
 10 17  1  0
 17 18  1  0
 17 19  2  0
  8 20  1  0
 20 21  1  0
 20 22  2  0
  2 23  1  0
 23 24  1  0
 24 25  1  0
 25 26  1  0
 26 27  1  0
 26 28  2  0
 25 29  1  0
 29 30  1  0
 29 31  2  0
 25 32  1  0
 32 33  1  0
 32 34  2  0
  3 35  1  0
  3 36  1  0
  4 37  1  1
  7 38  1  0
  9 39  1  0
  9 40  1  0
 24 41  1  0
 24 42  1  0
M  CHG  8  11   1  12  -1  14   1  15  -1  17   1  18  -1  20   1  21  -1
M  CHG  6  26   1  27  -1  29   1  30  -1  32   1  33  -1
M  END
$$$$
