
     RDKit          3D

 24 23  0  0  0  0  0  0  0  0999 V2000
   -0.9787   -1.0738   -1.5378 C   0  0  0  0  0  0  0  0  0  0  0  0
   -0.5198   -0.4792   -0.1951 C   0  0  0  0  0  0  0  0  0  0  0  0
    0.7654    0.1748   -0.4485 O   0  0  0  0  0  0  0  0  0  0  0  0
    1.8863   -0.6077   -0.3961 C   0  0  0  0  0  0  0  0  0  0  0  0
    1.8270   -1.8043   -0.1755 O   0  0  0  0  0  0  0  0  0  0  0  0
    2.9590    0.1757   -0.6278 N   0  0  0  0  0  0  0  0  0  0  0  0
    4.2440   -0.2818   -0.6568 N   0  0  0  0  0  4  0  0  0  0  0  0
    5.0358    0.6302   -0.8844 O   0  0  0  0  0  1  0  0  0  0  0  0
    4.4537   -1.4744   -0.4719 O   0  0  0  0  0  0  0  0  0  0  0  0
   -1.5117    0.4828    0.4841 C   0  0  0  0  0  0  0  0  0  0  0  0
   -0.9266    1.1234    1.6980 N   0  0  0  0  0  4  0  0  0  0  0  0
    0.0606    0.5797    2.2201 O   0  0  0  0  0  1  0  0  0  0  0  0
   -1.4362    2.1663    2.1358 O   0  0  0  0  0  0  0  0  0  0  0  0
   -2.7135   -0.2708    0.9316 N   0  0  0  0  0  4  0  0  0  0  0  0
   -2.8351   -0.5530    2.1324 O   0  0  0  0  0  1  0  0  0  0  0  0
   -3.4937   -0.6836    0.0592 O   0  0  0  0  0  0  0  0  0  0  0  0
   -1.9342    1.6123   -0.3851 N   0  0  0  0  0  4  0  0  0  0  0  0
   -1.0767    2.1018   -1.1389 O   0  0  0  0  0  1  0  0  0  0  0  0
   -3.0963    2.0390   -0.3175 O   0  0  0  0  0  0  0  0  0  0  0  0
   -1.2091   -0.2944   -2.2704 H   0  0  0  0  0  0  0  0  0  0  0  0
   -0.1822   -1.6791   -1.9846 H   0  0  0  0  0  0  0  0  0  0  0  0
   -1.8501   -1.7228   -1.4277 H   0  0  0  0  0  0  0  0  0  0  0  0
   -0.3497   -1.3223    0.4901 H   0  0  0  0  0  0  0  0  0  0  0  0
    2.8818    1.1611   -0.7956 H   0  0  0  0  0  0  0  0  0  0  0  0
  1  2  1  0
  2  3  1  0
  3  4  1  0
  4  5  2  0
  4  6  1  0
  6  7  1  0
  7  8  1  0
  7  9  2  0
  2 10  1  0
 10 11  1  0
 11 12  1  0
 11 13  2  0
 10 14  1  0
 14 15  1  0
 14 16  2  0
 10 17  1  0
 17 18  1  0
 17 19  2  0
  1 20  1  0
  1 21  1  0
  1 22  1  0
  2 23  1  0
  6 24  1  0
M  CHG  8   7   1   8  -1  11   1  12  -1  14   1  15  -1  17   1  18  -1
M  END
$$$$
