
     RDKit          3D

 32 31  0  0  0  0  0  0  0  0999 V2000
   -0.4417   -0.5249   -1.9175 O   0  0  0  0  0  0  0  0  0  0  0  0
   -0.1749   -0.2495   -0.7595 C   0  0  0  0  0  0  0  0  0  0  0  0
   -1.1051    0.0999    0.1857 N   0  0  0  0  0  0  0  0  0  0  0  0
   -2.5390    0.0416   -0.1613 C   0  0  0  0  0  0  0  0  0  0  0  0
   -3.4920    0.8932    0.6778 C   0  0  0  0  0  0  0  0  0  0  0  0
   -4.8727    0.8114    0.1396 N   0  0  0  0  0  4  0  0  0  0  0  0
   -5.2267   -0.2825   -0.3299 O   0  0  0  0  0  1  0  0  0  0  0  0
   -5.6104    1.8065    0.1870 O   0  0  0  0  0  0  0  0  0  0  0  0
   -3.0667    2.3085    0.6522 N   0  0  0  0  0  4  0  0  0  0  0  0
   -2.7774    2.8768    1.7157 O   0  0  0  0  0  1  0  0  0  0  0  0
   -2.9493    2.8443   -0.4626 O   0  0  0  0  0  0  0  0  0  0  0  0
   -3.5669    0.4288    2.0836 N   0  0  0  0  0  4  0  0  0  0  0  0
   -2.5873   -0.1937    2.5320 O   0  0  0  0  0  1  0  0  0  0  0  0
   -4.5856    0.6618    2.7504 O   0  0  0  0  0  0  0  0  0  0  0  0
    1.0935   -0.2501   -0.2379 N   0  0  0  0  0  0  0  0  0  0  0  0
    2.2404   -0.4861   -1.1372 C   0  0  0  0  0  0  0  0  0  0  0  0
    3.5338   -0.9896   -0.4958 C   0  0  0  0  0  0  0  0  0  0  0  0
    4.5504   -1.2812   -1.5368 N   0  0  0  0  0  4  0  0  0  0  0  0
    4.5718   -0.5288   -2.5247 O   0  0  0  0  0  1  0  0  0  0  0  0
    5.3312   -2.2319   -1.3839 O   0  0  0  0  0  0  0  0  0  0  0  0
    4.1411    0.0191    0.4052 N   0  0  0  0  0  4  0  0  0  0  0  0
    5.3621   -0.0081    0.6173 O   0  0  0  0  0  1  0  0  0  0  0  0
    3.3814    0.8675    0.9064 O   0  0  0  0  0  0  0  0  0  0  0  0
    3.2762   -2.2315    0.2630 N   0  0  0  0  0  4  0  0  0  0  0  0
    3.5137   -2.2623    1.4797 O   0  0  0  0  0  1  0  0  0  0  0  0
    2.7567   -3.1753   -0.3556 O   0  0  0  0  0  0  0  0  0  0  0  0
   -0.8527   -0.2220    1.1201 H   0  0  0  0  0  0  0  0  0  0  0  0
   -2.8033   -1.0237   -0.1053 H   0  0  0  0  0  0  0  0  0  0  0  0
   -2.6308    0.3155   -1.2216 H   0  0  0  0  0  0  0  0  0  0  0  0
    1.2212    0.4631    0.4800 H   0  0  0  0  0  0  0  0  0  0  0  0
    1.9098   -1.1916   -1.9121 H   0  0  0  0  0  0  0  0  0  0  0  0
    2.3992    0.4706   -1.6541 H   0  0  0  0  0  0  0  0  0  0  0  0
  1  2  2  0
  2  3  1  0
  3  4  1  0
  4  5  1  0
  5  6  1  0
  6  7  1  0
  6  8  2  0
  5  9  1  0
  9 10  1  0
  9 11  2  0
  5 12  1  0
 12 13  1  0
 12 14  2  0
  2 15  1  0
 15 16  1  0
 16 17  1  0
 17 18  1  0
 18 19  1  0
 18 20  2  0
 17 21  1  0
 21 22  1  0
 21 23  2  0
 17 24  1  0
 24 25  1  0
 24 26  2  0
  3 27  1  0
  4 28  1  0
  4 29  1  0
 15 30  1  0
 16 31  1  0
 16 32  1  0
M  CHG  8   6   1   7  -1   9   1  10  -1  12   1  13  -1  18   1  19  -1
M  CHG  4  21   1  22  -1  24   1  25  -1
M  END
$$$$
