
     RDKit          3D

 38 37  0  0  0  0  0  0  0  0999 V2000
    0.4359    0.2156   -1.1463 O   0  0  0  0  0  0  0  0  0  0  0  0
    0.1283   -0.3645   -0.1164 C   0  0  0  0  0  0  0  0  0  0  0  0
   -1.1333   -0.3780    0.4263 N   0  0  0  0  0  0  0  0  0  0  0  0
   -2.1778    0.4072   -0.2037 C   0  0  0  0  0  0  0  0  0  0  0  0
   -3.5558   -0.0311    0.2924 C   0  0  0  0  0  0  0  0  0  0  0  0
   -4.7445    0.6282   -0.4284 C   0  0  0  0  0  0  0  0  0  0  0  0
   -6.0555    0.1753    0.1250 N   0  0  0  0  0  4  0  0  0  0  0  0
   -6.0343   -0.6946    1.0110 O   0  0  0  0  0  1  0  0  0  0  0  0
   -7.1022    0.6656   -0.3239 O   0  0  0  0  0  0  0  0  0  0  0  0
   -4.8323    0.2753   -1.8706 N   0  0  0  0  0  4  0  0  0  0  0  0
   -5.4229    1.0298   -2.6558 O   0  0  0  0  0  1  0  0  0  0  0  0
   -4.3286   -0.8065   -2.2129 O   0  0  0  0  0  0  0  0  0  0  0  0
   -4.6728    2.1005   -0.2510 N   0  0  0  0  0  4  0  0  0  0  0  0
   -3.9871    2.7550   -1.0505 O   0  0  0  0  0  1  0  0  0  0  0  0
   -5.1547    2.5842    0.7852 O   0  0  0  0  0  0  0  0  0  0  0  0
    1.0089   -1.0818    0.6555 N   0  0  0  0  0  0  0  0  0  0  0  0
    2.3704   -1.2865    0.1962 C   0  0  0  0  0  0  0  0  0  0  0  0
    3.2069   -0.0031    0.3111 C   0  0  0  0  0  0  0  0  0  0  0  0
    4.6971   -0.1691   -0.0191 C   0  0  0  0  0  0  0  0  0  0  0  0
    4.8445   -0.7737   -1.3668 N   0  0  0  0  0  4  0  0  0  0  0  0
    4.9566   -2.0076   -1.4457 O   0  0  0  0  0  1  0  0  0  0  0  0
    4.6858   -0.0391   -2.3534 O   0  0  0  0  0  0  0  0  0  0  0  0
    5.4198    1.1363    0.0006 N   0  0  0  0  0  4  0  0  0  0  0  0
    4.9167    2.0525    0.6712 O   0  0  0  0  0  1  0  0  0  0  0  0
    6.4977    1.2482   -0.6021 O   0  0  0  0  0  0  0  0  0  0  0  0
    5.4427   -0.9906    0.9751 N   0  0  0  0  0  4  0  0  0  0  0  0
    4.8458   -1.3102    2.0161 O   0  0  0  0  0  1  0  0  0  0  0  0
    6.6219   -1.2992    0.7491 O   0  0  0  0  0  0  0  0  0  0  0  0
   -1.1189   -0.4096    1.4381 H   0  0  0  0  0  0  0  0  0  0  0  0
   -2.0883    0.2978   -1.2893 H   0  0  0  0  0  0  0  0  0  0  0  0
   -1.9766    1.4539    0.0474 H   0  0  0  0  0  0  0  0  0  0  0  0
   -3.6047    0.1830    1.3705 H   0  0  0  0  0  0  0  0  0  0  0  0
   -3.6199   -1.1263    0.2141 H   0  0  0  0  0  0  0  0  0  0  0  0
    0.5749   -1.8654    1.1273 H   0  0  0  0  0  0  0  0  0  0  0  0
    2.7825   -2.0935    0.8078 H   0  0  0  0  0  0  0  0  0  0  0  0
    2.3219   -1.6374   -0.8403 H   0  0  0  0  0  0  0  0  0  0  0  0
    2.7753    0.7555   -0.3564 H   0  0  0  0  0  0  0  0  0  0  0  0
    3.0767    0.4036    1.3246 H   0  0  0  0  0  0  0  0  0  0  0  0
  1  2  2  0
  2  3  1  0
  3  4  1  0
  4  5  1  0
  5  6  1  0
  6  7  1  0
  7  8  1  0
  7  9  2  0
  6 10  1  0
 10 11  1  0
 10 12  2  0
  6 13  1  0
 13 14  1  0
 13 15  2  0
  2 16  1  0
 16 17  1  0
 17 18  1  0
 18 19  1  0
 19 20  1  0
 20 21  1  0
 20 22  2  0
 19 23  1  0
 23 24  1  0
 23 25  2  0
 19 26  1  0
 26 27  1  0
 26 28  2  0
  3 29  1  0
  4 30  1  0
  4 31  1  0
  5 32  1  0
  5 33  1  0
 16 34  1  0
 17 35  1  0
 17 36  1  0
 18 37  1  0
 18 38  1  0
M  CHG  8   7   1   8  -1  10   1  11  -1  13   1  14  -1  20   1  21  -1
M  CHG  4  23   1  24  -1  26   1  27  -1
M  END
$$$$
