
     RDKit          3D

 24 23  0  0  0  0  0  0  0  0999 V2000
    2.4677   -0.7593    0.6921 O   0  0  0  0  0  0  0  0  0  0  0  0
    2.1759   -0.2163   -0.3593 C   0  0  0  0  0  0  0  0  0  0  0  0
    2.8377    0.7300   -1.0555 N   0  0  0  0  0  0  0  0  0  0  0  0
    4.0299    1.2665   -0.6686 N   0  0  0  0  0  4  0  0  0  0  0  0
    4.5582    0.8583    0.3588 O   0  0  0  0  0  1  0  0  0  0  0  0
    4.4145    2.1211   -1.4637 O   0  0  0  0  0  0  0  0  0  0  0  0
    1.0149   -0.5022   -1.0256 O   0  0  0  0  0  0  0  0  0  0  0  0
    0.1805   -1.5214   -0.4526 C   0  0  0  0  0  0  0  0  0  0  0  0
   -0.7308   -0.9579    0.6457 C   0  0  0  0  0  0  0  0  0  0  0  0
   -1.8100    0.0450    0.1920 C   0  0  0  0  0  0  0  0  0  0  0  0
   -2.5037    0.6446    1.3715 N   0  0  0  0  0  4  0  0  0  0  0  0
   -2.9036    1.8170    1.3201 O   0  0  0  0  0  1  0  0  0  0  0  0
   -2.6651   -0.0905    2.3594 O   0  0  0  0  0  0  0  0  0  0  0  0
   -1.2084    1.1505   -0.5973 N   0  0  0  0  0  4  0  0  0  0  0  0
   -1.4350    1.2203   -1.8145 O   0  0  0  0  0  1  0  0  0  0  0  0
   -0.3831    1.8789   -0.0184 O   0  0  0  0  0  0  0  0  0  0  0  0
   -2.9155   -0.5737   -0.5910 N   0  0  0  0  0  4  0  0  0  0  0  0
   -3.9133    0.1064   -0.8727 O   0  0  0  0  0  1  0  0  0  0  0  0
   -2.7956   -1.7679   -0.9073 O   0  0  0  0  0  0  0  0  0  0  0  0
    2.4719    1.1285   -1.8999 H   0  0  0  0  0  0  0  0  0  0  0  0
    0.7978   -2.3354   -0.0528 H   0  0  0  0  0  0  0  0  0  0  0  0
   -0.3920   -1.9571   -1.2752 H   0  0  0  0  0  0  0  0  0  0  0  0
   -1.1995   -1.8119    1.1541 H   0  0  0  0  0  0  0  0  0  0  0  0
   -0.0936   -0.4734    1.3985 H   0  0  0  0  0  0  0  0  0  0  0  0
  1  2  2  0
  2  3  1  0
  3  4  1  0
  4  5  1  0
  4  6  2  0
  2  7  1  0
  7  8  1  0
  8  9  1  0
  9 10  1  0
 10 11  1  0
 11 12  1  0
 11 13  2  0
 10 14  1  0
 14 15  1  0
 14 16  2  0
 10 17  1  0
 17 18  1  0
 17 19  2  0
  3 20  1  0
  8 21  1  0
  8 22  1  0
  9 23  1  0
  9 24  1  0
M  CHG  8   4   1   5  -1  11   1  12  -1  14   1  15  -1  17   1  18  -1
M  END
$$$$
