
     RDKit          3D

 23 22  0  0  0  0  0  0  0  0999 V2000
    5.9900    1.2543   -0.8706 N   0  0  0  0  0  2  0  0  0  0  0  0
    4.9567    1.0064   -0.4567 N   0  0  0  0  0  4  0  0  0  0  0  0
    3.8271    0.7743    0.0001 N   0  0  0  0  0  0  0  0  0  0  0  0
    3.5002   -0.5455   -0.0614 C   0  0  0  0  0  0  0  0  0  0  0  0
    4.2478   -1.4468   -0.4374 O   0  0  0  0  0  0  0  0  0  0  0  0
    2.2298   -0.8915    0.3322 N   0  0  0  0  0  0  0  0  0  0  0  0
    1.1828   -0.0691    0.6188 C   0  0  0  0  0  0  0  0  0  0  0  0
    1.1712    1.1465    0.7052 O   0  0  0  0  0  0  0  0  0  0  0  0
    0.0623   -0.8237    0.8133 O   0  0  0  0  0  0  0  0  0  0  0  0
   -1.1450   -0.1036    1.1869 C   0  0  0  0  0  0  0  0  0  0  0  0
   -2.1438    0.0740    0.0497 C   0  0  0  0  0  0  0  0  0  0  0  0
   -3.4081    0.6931    0.5262 N   0  0  0  0  0  4  0  0  0  0  0  0
   -3.4397    1.1042    1.6973 O   0  0  0  0  0  1  0  0  0  0  0  0
   -4.3789    0.7538   -0.2431 O   0  0  0  0  0  0  0  0  0  0  0  0
   -1.5703    0.9357   -1.0061 N   0  0  0  0  0  4  0  0  0  0  0  0
   -1.8926    2.1324   -1.0403 O   0  0  0  0  0  1  0  0  0  0  0  0
   -0.7048    0.4405   -1.7472 O   0  0  0  0  0  0  0  0  0  0  0  0
   -2.5625   -1.2276   -0.5254 N   0  0  0  0  0  4  0  0  0  0  0  0
   -2.6003   -2.1989    0.2487 O   0  0  0  0  0  1  0  0  0  0  0  0
   -2.8850   -1.2996   -1.7203 O   0  0  0  0  0  0  0  0  0  0  0  0
    2.0305   -1.8754    0.2555 H   0  0  0  0  0  0  0  0  0  0  0  0
   -0.8873    0.8603    1.6470 H   0  0  0  0  0  0  0  0  0  0  0  0
   -1.5800   -0.6936    2.0050 H   0  0  0  0  0  0  0  0  0  0  0  0
  1  2  2  0
  2  3  2  0
  3  4  1  0
  4  5  2  0
  4  6  1  0
  6  7  1  0
  7  8  2  0
  7  9  1  0
  9 10  1  0
 10 11  1  0
 11 12  1  0
 12 13  1  0
 12 14  2  0
 11 15  1  0
 15 16  1  0
 15 17  2  0
 11 18  1  0
 18 19  1  0
 18 20  2  0
  6 21  1  0
 10 22  1  0
 10 23  1  0
M  CHG  8   1  -1   2   1  12   1  13  -1  15   1  16  -1  18   1  19  -1
M  END
$$$$
