
     RDKit          3D

 15 16  0  0  0  0  0  0  0  0999 V2000
   -2.1124    1.9489    1.5837 O   0  0  0  0  0  1  0  0  0  0  0  0
   -1.5774    1.6966    0.4955 N   0  0  0  0  0  4  0  0  0  0  0  0
   -1.1779    2.5227   -0.3353 O   0  0  0  0  0  0  0  0  0  0  0  0
   -1.4059    0.3196    0.1576 C   0  0  0  0  0  0  0  0  0  0  0  0
   -2.4906   -0.4656    0.0133 N   0  0  0  0  0  0  0  0  0  0  0  0
   -1.9136   -1.6295   -0.3323 N   0  0  0  0  0  0  0  0  0  0  0  0
   -0.5669   -1.6675   -0.4297 N   0  0  0  0  0  0  0  0  0  0  0  0
   -0.2393   -0.4039   -0.1048 C   0  0  0  0  0  0  0  0  0  0  0  0
    1.2204    0.0708   -0.0325 C   0  0  0  0  0  0  0  0  0  0  0  0
    1.6521    1.2604    0.3190 N   0  0  0  0  0  0  0  0  0  0  0  0
    3.0250    1.1981    0.2448 N   0  0  0  0  0  0  0  0  0  0  0  0
    3.4277   -0.0064   -0.1401 N   0  0  0  0  0  0  0  0  0  0  0  0
    2.3008   -0.7091   -0.3133 N   0  0  0  0  0  0  0  0  0  0  0  0
   -2.4780   -2.4586   -0.5169 H   0  0  0  0  0  0  0  0  0  0  0  0
    2.3358   -1.6765   -0.6091 H   0  0  0  0  0  0  0  0  0  0  0  0
  1  2  1  0
  2  3  2  0
  2  4  1  0
  4  5  2  0
  5  6  1  0
  6  7  1  0
  7  8  2  0
  8  9  1  0
  9 10  2  0
 10 11  1  0
 11 12  2  0
 12 13  1  0
  8  4  1  0
 13  9  1  0
  6 14  1  0
 13 15  1  0
M  CHG  2   1  -1   2   1
M  END
$$$$
