
     RDKit          3D

 21 21  0  0  0  0  0  0  0  0999 V2000
   -1.6430   -0.2471   -1.1984 C   0  0  0  0  0  0  0  0  0  0  0  0
   -1.4309    0.7841   -0.1834 N   0  0  0  0  0  0  0  0  0  0  0  0
   -0.4529    0.4121    0.8377 C   0  0  0  0  0  0  0  0  0  0  0  0
    0.8577    0.1856    0.2616 N   0  0  0  0  0  0  0  0  0  0  0  0
    1.6040   -0.9390    0.1837 C   0  0  0  0  0  0  0  0  0  0  0  0
    1.1874   -2.3092    0.5040 N   0  0  0  0  0  4  0  0  0  0  0  0
    2.0519   -3.1128    0.8764 O   0  0  0  0  0  1  0  0  0  0  0  0
   -0.0249   -2.5457    0.3952 O   0  0  0  0  0  0  0  0  0  0  0  0
    2.8275   -0.8103   -0.2409 N   0  0  0  0  0  0  0  0  0  0  0  0
    2.9176    0.5424   -0.4525 N   0  0  0  0  0  0  0  0  0  0  0  0
    1.7287    1.1781   -0.0953 C   0  0  0  0  0  0  0  0  0  0  0  0
    1.5395    2.3807   -0.0766 O   0  0  0  0  0  0  0  0  0  0  0  0
   -2.6115    1.2886    0.3338 N   0  0  0  0  0  4  0  0  0  0  0  0
   -2.6195    1.5835    1.5312 O   0  0  0  0  0  1  0  0  0  0  0  0
   -3.5518    1.4053   -0.4547 O   0  0  0  0  0  0  0  0  0  0  0  0
   -2.2390    0.1263   -2.0400 H   0  0  0  0  0  0  0  0  0  0  0  0
   -0.6991   -0.5728   -1.6480 H   0  0  0  0  0  0  0  0  0  0  0  0
   -2.1476   -1.1274   -0.7837 H   0  0  0  0  0  0  0  0  0  0  0  0
   -0.3012    1.2353    1.5485 H   0  0  0  0  0  0  0  0  0  0  0  0
   -0.7749   -0.4616    1.4136 H   0  0  0  0  0  0  0  0  0  0  0  0
    3.7823    1.0040   -0.7123 H   0  0  0  0  0  0  0  0  0  0  0  0
  1  2  1  0
  2  3  1  0
  3  4  1  0
  4  5  1  0
  5  6  1  0
  6  7  1  0
  6  8  2  0
  5  9  2  0
  9 10  1  0
 10 11  1  0
 11 12  2  0
  2 13  1  0
 13 14  1  0
 13 15  2  0
 11  4  1  0
  1 16  1  0
  1 17  1  0
  1 18  1  0
  3 19  1  0
  3 20  1  0
 10 21  1  0
M  CHG  4   6   1   7  -1  13   1  14  -1
M  END
$$$$
