
     RDKit          3D

 22 22  0  0  0  0  0  0  0  0999 V2000
   -2.8658   -1.0258   -0.3309 C   0  0  0  0  0  0  0  0  0  0  0  0
   -1.5850   -0.3581   -0.5764 N   0  0  0  0  0  0  0  0  0  0  0  0
   -0.9088   -0.1271    0.7045 C   0  0  0  0  0  0  0  0  0  0  0  0
    0.5202    0.1100    0.4967 N   0  0  0  0  0  0  0  0  0  0  0  0
    1.0569    1.2952    0.8877 N   0  0  0  0  0  0  0  0  0  0  0  0
    2.3294    1.1564    0.4684 C   0  0  0  0  0  0  0  0  0  0  0  0
    3.3100    2.2208    0.6533 N   0  0  0  0  0  4  0  0  0  0  0  0
    4.4635    1.9960    0.2579 O   0  0  0  0  0  1  0  0  0  0  0  0
    2.9324    3.2685    1.2005 O   0  0  0  0  0  0  0  0  0  0  0  0
    2.6471   -0.0609   -0.0862 N   0  0  0  0  0  0  0  0  0  0  0  0
    1.4875   -0.6861   -0.0423 C   0  0  0  0  0  0  0  0  0  0  0  0
    1.2697   -2.0256   -0.4841 N   0  0  0  0  0  4  0  0  0  0  0  0
    2.0356   -2.4710   -1.3441 O   0  0  0  0  0  1  0  0  0  0  0  0
    0.3356   -2.6437    0.0444 O   0  0  0  0  0  0  0  0  0  0  0  0
   -1.6864    0.7946   -1.3208 N   0  0  0  0  0  4  0  0  0  0  0  0
   -2.7879    1.3408   -1.3812 O   0  0  0  0  0  1  0  0  0  0  0  0
   -0.6383    1.1501   -1.8593 O   0  0  0  0  0  0  0  0  0  0  0  0
   -3.5337   -0.4408    0.3134 H   0  0  0  0  0  0  0  0  0  0  0  0
   -3.3848   -1.2380   -1.2735 H   0  0  0  0  0  0  0  0  0  0  0  0
   -2.7019   -1.9978    0.1491 H   0  0  0  0  0  0  0  0  0  0  0  0
   -0.9693   -0.9906    1.3776 H   0  0  0  0  0  0  0  0  0  0  0  0
   -1.3258    0.7333    1.2450 H   0  0  0  0  0  0  0  0  0  0  0  0
  1  2  1  0
  2  3  1  0
  3  4  1  0
  4  5  1  0
  5  6  2  0
  6  7  1  0
  7  8  1  0
  7  9  2  0
  6 10  1  0
 10 11  2  0
 11 12  1  0
 12 13  1  0
 12 14  2  0
  2 15  1  0
 15 16  1  0
 15 17  2  0
 11  4  1  0
  1 18  1  0
  1 19  1  0
  1 20  1  0
  3 21  1  0
  3 22  1  0
M  CHG  6   7   1   8  -1  12   1  13  -1  15   1  16  -1
M  END
$$$$
