
     RDKit          3D

 38 39  0  0  0  0  0  0  0  0999 V2000
   -4.2278   -1.5185    0.5979 C   0  0  0  0  0  0  0  0  0  0  0  0
   -2.8749   -1.1270    0.2189 N   0  0  0  0  0  0  0  0  0  0  0  0
   -2.4686    0.1242    0.8597 C   0  0  0  0  0  0  0  0  0  0  0  0
   -1.7815    0.9513   -0.1318 N   0  0  0  0  0  0  0  0  0  0  0  0
   -2.4961    1.5057   -1.1471 N   0  0  0  0  0  0  0  0  0  0  0  0
   -1.5301    2.1491   -1.8197 C   0  0  0  0  0  0  0  0  0  0  0  0
   -1.8115    2.8941   -3.0393 N   0  0  0  0  0  4  0  0  0  0  0  0
   -2.9832    2.9290   -3.4461 O   0  0  0  0  0  1  0  0  0  0  0  0
   -0.8478    3.4543   -3.5859 O   0  0  0  0  0  0  0  0  0  0  0  0
   -0.2749    2.0885   -1.2625 N   0  0  0  0  0  0  0  0  0  0  0  0
   -0.4593    1.3230   -0.2057 C   0  0  0  0  0  0  0  0  0  0  0  0
    0.5694    0.9545    0.7069 C   0  0  0  0  0  0  0  0  0  0  0  0
    0.3846    0.7865    2.0016 N   0  0  0  0  0  0  0  0  0  0  0  0
    1.6411    0.4617    2.4510 C   0  0  0  0  0  0  0  0  0  0  0  0
    1.9235    0.1721    3.8502 N   0  0  0  0  0  4  0  0  0  0  0  0
    0.9580    0.1957    4.6300 O   0  0  0  0  0  1  0  0  0  0  0  0
    3.0963   -0.0762    4.1694 O   0  0  0  0  0  0  0  0  0  0  0  0
    2.6036    0.4368    1.5172 N   0  0  0  0  0  0  0  0  0  0  0  0
    1.8892    0.7166    0.3949 N   0  0  0  0  0  0  0  0  0  0  0  0
    2.5697    0.7803   -0.8985 C   0  0  0  0  0  0  0  0  0  0  0  0
    2.9264   -0.5502   -1.3901 N   0  0  0  0  0  0  0  0  0  0  0  0
    4.0099   -1.2015   -0.6660 C   0  0  0  0  0  0  0  0  0  0  0  0
    1.8961   -1.3524   -1.8029 N   0  0  0  0  0  4  0  0  0  0  0  0
    2.1062   -2.5655   -1.8238 O   0  0  0  0  0  1  0  0  0  0  0  0
    0.8626   -0.7779   -2.1521 O   0  0  0  0  0  0  0  0  0  0  0  0
   -1.9404   -2.1355    0.2509 N   0  0  0  0  0  4  0  0  0  0  0  0
   -2.3599   -3.2878    0.1376 O   0  0  0  0  0  1  0  0  0  0  0  0
   -0.7631   -1.7942    0.3873 O   0  0  0  0  0  0  0  0  0  0  0  0
   -4.9294   -0.6889    0.4495 H   0  0  0  0  0  0  0  0  0  0  0  0
   -4.6086   -2.3348   -0.0274 H   0  0  0  0  0  0  0  0  0  0  0  0
   -4.2825   -1.8267    1.6485 H   0  0  0  0  0  0  0  0  0  0  0  0
   -1.8622   -0.0118    1.7579 H   0  0  0  0  0  0  0  0  0  0  0  0
   -3.3330    0.7293    1.1652 H   0  0  0  0  0  0  0  0  0  0  0  0
    3.4693    1.3902   -0.7436 H   0  0  0  0  0  0  0  0  0  0  0  0
    1.9659    1.3421   -1.6141 H   0  0  0  0  0  0  0  0  0  0  0  0
    4.8036   -0.4887   -0.4141 H   0  0  0  0  0  0  0  0  0  0  0  0
    4.4903   -1.9698   -1.2841 H   0  0  0  0  0  0  0  0  0  0  0  0
    3.6693   -1.6775    0.2602 H   0  0  0  0  0  0  0  0  0  0  0  0
  1  2  1  0
  2  3  1  0
  3  4  1  0
  4  5  1  0
  5  6  2  0
  6  7  1  0
  7  8  1  0
  7  9  2  0
  6 10  1  0
 10 11  2  0
 11 12  1  0
 12 13  2  0
 13 14  1  0
 14 15  1  0
 15 16  1  0
 15 17  2  0
 14 18  2  0
 18 19  1  0
 19 20  1  0
 20 21  1  0
 21 22  1  0
 21 23  1  0
 23 24  1  0
 23 25  2  0
  2 26  1  0
 26 27  1  0
 26 28  2  0
 11  4  1  0
 19 12  1  0
  1 29  1  0
  1 30  1  0
  1 31  1  0
  3 32  1  0
  3 33  1  0
 20 34  1  0
 20 35  1  0
 22 36  1  0
 22 37  1  0
 22 38  1  0
M  CHG  8   7   1   8  -1  15   1  16  -1  23   1  24  -1  26   1  27  -1
M  END
$$$$
