
     RDKit          3D

 23 23  0  0  0  0  0  0  0  0999 V2000
   -1.7492   -1.2665    0.9345 C   0  0  0  0  0  0  0  0  0  0  0  0
   -2.0286   -0.2119   -0.0455 N   0  0  0  0  0  0  0  0  0  0  0  0
   -0.9142    0.0366   -0.9606 C   0  0  0  0  0  0  0  0  0  0  0  0
    0.1958    0.6248   -0.2089 N   0  0  0  0  0  0  0  0  0  0  0  0
    0.1778    1.8945    0.3274 C   0  0  0  0  0  0  0  0  0  0  0  0
    1.3306    2.2122    0.8792 N   0  0  0  0  0  0  0  0  0  0  0  0
    2.1423    1.1104    0.6773 C   0  0  0  0  0  0  0  0  0  0  0  0
    3.4812    1.0629    1.1984 N   0  0  0  0  0  4  0  0  0  0  0  0
    4.1139    2.1240    1.2428 O   0  0  0  0  0  1  0  0  0  0  0  0
    3.8843   -0.0457    1.5745 O   0  0  0  0  0  0  0  0  0  0  0  0
    1.4593    0.1371   -0.0005 C   0  0  0  0  0  0  0  0  0  0  0  0
    1.9118   -1.1139   -0.4599 N   0  0  0  0  0  4  0  0  0  0  0  0
    2.9670   -1.1153   -1.0954 O   0  0  0  0  0  1  0  0  0  0  0  0
    1.1754   -2.0790   -0.2351 O   0  0  0  0  0  0  0  0  0  0  0  0
   -3.2438   -0.3679   -0.6914 N   0  0  0  0  0  4  0  0  0  0  0  0
   -4.1303   -0.9608   -0.0756 O   0  0  0  0  0  1  0  0  0  0  0  0
   -3.3394    0.1316   -1.8142 O   0  0  0  0  0  0  0  0  0  0  0  0
   -0.8299   -1.0671    1.4946 H   0  0  0  0  0  0  0  0  0  0  0  0
   -1.6542   -2.2491    0.4575 H   0  0  0  0  0  0  0  0  0  0  0  0
   -2.5328   -1.3263    1.6997 H   0  0  0  0  0  0  0  0  0  0  0  0
   -1.1356    0.7986   -1.7200 H   0  0  0  0  0  0  0  0  0  0  0  0
   -0.5839   -0.8638   -1.4865 H   0  0  0  0  0  0  0  0  0  0  0  0
   -0.6975    2.5344    0.2850 H   0  0  0  0  0  0  0  0  0  0  0  0
  1  2  1  0
  2  3  1  0
  3  4  1  0
  4  5  1  0
  5  6  2  0
  6  7  1  0
  7  8  1  0
  8  9  1  0
  8 10  2  0
  7 11  2  0
 11 12  1  0
 12 13  1  0
 12 14  2  0
  2 15  1  0
 15 16  1  0
 15 17  2  0
 11  4  1  0
  1 18  1  0
  1 19  1  0
  1 20  1  0
  3 21  1  0
  3 22  1  0
  5 23  1  0
M  CHG  6   8   1   9  -1  12   1  13  -1  15   1  16  -1
M  END
$$$$
