
     RDKit          3D

 32 33  0  0  0  0  0  0  0  0999 V2000
   -3.3894    0.2978   -0.5310 C   0  0  0  0  0  0  0  0  0  0  0  0
   -2.2645    1.0024    0.0874 N   0  0  0  0  0  0  0  0  0  0  0  0
   -1.7100    0.2960    1.2444 C   0  0  0  0  0  0  0  0  0  0  0  0
   -1.1317   -0.9898    0.8124 N   0  0  0  0  0  0  0  0  0  0  0  0
   -1.8442   -2.1100    1.1080 N   0  0  0  0  0  0  0  0  0  0  0  0
   -1.0984   -3.1112    0.6454 C   0  0  0  0  0  0  0  0  0  0  0  0
    0.0962   -2.6568    0.0661 C   0  0  0  0  0  0  0  0  0  0  0  0
    1.0397   -3.4976   -0.5934 N   0  0  0  0  0  4  0  0  0  0  0  0
    1.5353   -3.0658   -1.6395 O   0  0  0  0  0  1  0  0  0  0  0  0
    1.2663   -4.5929   -0.0707 O   0  0  0  0  0  0  0  0  0  0  0  0
    0.0949   -1.2794    0.2359 C   0  0  0  0  0  0  0  0  0  0  0  0
    1.0804   -0.3475   -0.0733 N   0  0  0  0  0  0  0  0  0  0  0  0
    2.4130   -0.5144   -0.3707 C   0  0  0  0  0  0  0  0  0  0  0  0
    2.9197    0.7381   -0.6596 C   0  0  0  0  0  0  0  0  0  0  0  0
    4.2425    1.0495   -1.0749 N   0  0  0  0  0  4  0  0  0  0  0  0
    5.1301    0.2603   -0.7354 O   0  0  0  0  0  1  0  0  0  0  0  0
    4.3816    2.0625   -1.7650 O   0  0  0  0  0  0  0  0  0  0  0  0
    1.8493    1.6028   -0.4573 C   0  0  0  0  0  0  0  0  0  0  0  0
    1.8117    3.0391   -0.5183 N   0  0  0  0  0  4  0  0  0  0  0  0
    2.6844    3.6331    0.1275 O   0  0  0  0  0  1  0  0  0  0  0  0
    0.9165    3.5527   -1.2003 O   0  0  0  0  0  0  0  0  0  0  0  0
    0.7384    0.9565   -0.0613 N   0  0  0  0  0  0  0  0  0  0  0  0
   -2.5132    2.3374    0.3389 N   0  0  0  0  0  4  0  0  0  0  0  0
   -3.3056    2.9055   -0.4153 O   0  0  0  0  0  1  0  0  0  0  0  0
   -1.9192    2.8464    1.2927 O   0  0  0  0  0  0  0  0  0  0  0  0
   -3.7119    0.7814   -1.4612 H   0  0  0  0  0  0  0  0  0  0  0  0
   -4.2514    0.2376    0.1440 H   0  0  0  0  0  0  0  0  0  0  0  0
   -3.1191   -0.7190   -0.8326 H   0  0  0  0  0  0  0  0  0  0  0  0
   -2.4827    0.0789    1.9943 H   0  0  0  0  0  0  0  0  0  0  0  0
   -0.8963    0.8108    1.7684 H   0  0  0  0  0  0  0  0  0  0  0  0
   -1.4665   -4.1273    0.7329 H   0  0  0  0  0  0  0  0  0  0  0  0
    2.9039   -1.4770   -0.3623 H   0  0  0  0  0  0  0  0  0  0  0  0
  1  2  1  0
  2  3  1  0
  3  4  1  0
  4  5  1  0
  5  6  2  0
  6  7  1  0
  7  8  1  0
  8  9  1  0
  8 10  2  0
  7 11  2  0
 11 12  1  0
 12 13  1  0
 13 14  2  0
 14 15  1  0
 15 16  1  0
 15 17  2  0
 14 18  1  0
 18 19  1  0
 19 20  1  0
 19 21  2  0
 18 22  2  0
  2 23  1  0
 23 24  1  0
 23 25  2  0
 11  4  1  0
 22 12  1  0
  1 26  1  0
  1 27  1  0
  1 28  1  0
  3 29  1  0
  3 30  1  0
  6 31  1  0
 13 32  1  0
M  CHG  8   8   1   9  -1  15   1  16  -1  19   1  20  -1  23   1  24  -1
M  END
$$$$
