
     RDKit          3D

 24 24  0  0  0  0  0  0  0  0999 V2000
    0.7611    3.6578    0.0427 O   0  0  0  0  0  0  0  0  0  0  0  0
   -0.1241    2.8717    0.3441 C   0  0  0  0  0  0  0  0  0  0  0  0
   -1.2999    3.2320    0.9310 O   0  0  0  0  0  0  0  0  0  0  0  0
   -1.3878    4.7020    0.9030 O   0  0  0  0  0  0  0  0  0  0  0  0
   -0.0394    1.3987    0.1581 C   0  0  0  0  0  0  0  0  0  0  0  0
    1.1447    0.8731   -0.3782 C   0  0  0  0  0  0  0  0  0  0  0  0
    1.2857   -0.5071   -0.5776 C   0  0  0  0  0  0  0  0  0  0  0  0
    2.5655   -1.0020   -1.1495 C   0  0  0  0  0  0  0  0  0  0  0  0
    3.5042   -0.2843   -1.4603 O   0  0  0  0  0  0  0  0  0  0  0  0
    2.5756   -2.3609   -1.2478 O   0  0  0  0  0  0  0  0  0  0  0  0
    3.7835   -2.7511   -1.9950 O   0  0  0  0  0  0  0  0  0  0  0  0
    0.2302   -1.3642   -0.2405 C   0  0  0  0  0  0  0  0  0  0  0  0
   -0.9603   -0.8464    0.2931 C   0  0  0  0  0  0  0  0  0  0  0  0
   -2.0425   -1.8082    0.6338 C   0  0  0  0  0  0  0  0  0  0  0  0
   -1.9475   -3.0201    0.5112 O   0  0  0  0  0  0  0  0  0  0  0  0
   -3.1650   -1.1645    1.0601 O   0  0  0  0  0  0  0  0  0  0  0  0
   -4.1011   -2.1801    1.5689 O   0  0  0  0  0  0  0  0  0  0  0  0
   -1.0930    0.5358    0.4933 C   0  0  0  0  0  0  0  0  0  0  0  0
   -0.4329    4.9033    0.9934 H   0  0  0  0  0  0  0  0  0  0  0  0
    1.9637    1.5443   -0.6434 H   0  0  0  0  0  0  0  0  0  0  0  0
    4.3806   -2.0414   -1.6788 H   0  0  0  0  0  0  0  0  0  0  0  0
    0.3206   -2.4402   -0.3904 H   0  0  0  0  0  0  0  0  0  0  0  0
   -3.9072   -2.8874    0.9195 H   0  0  0  0  0  0  0  0  0  0  0  0
   -2.0147    0.9392    0.9092 H   0  0  0  0  0  0  0  0  0  0  0  0
  1  2  2  0
  2  3  1  0
  3  4  1  0
  2  5  1  0
  5  6  2  0
  6  7  1  0
  7  8  1  0
  8  9  2  0
  8 10  1  0
 10 11  1  0
  7 12  2  0
 12 13  1  0
 13 14  1  0
 14 15  2  0
 14 16  1  0
 16 17  1  0
 13 18  2  0
 18  5  1  0
  4 19  1  0
  6 20  1  0
 11 21  1  0
 12 22  1  0
 17 23  1  0
 18 24  1  0
M  END
$$$$
