
     RDKit          3D

 29 28  0  0  0  0  0  0  0  0999 V2000
    4.7889   -0.0354   -0.8706 C   0  0  0  0  0  0  0  0  0  0  0  0
    3.5482    0.6255   -0.4686 N   0  0  0  0  0  0  0  0  0  0  0  0
    2.6395   -0.3205    0.1608 C   0  0  0  0  0  0  0  0  0  0  0  0
    1.2841    0.0693   -0.1100 N   0  0  0  0  0  0  0  0  0  0  0  0
    0.2533   -0.7729    0.1505 C   0  0  0  0  0  0  0  0  0  0  0  0
    0.3512   -1.9537    0.4411 O   0  0  0  0  0  0  0  0  0  0  0  0
   -0.9216   -0.1004    0.0586 O   0  0  0  0  0  0  0  0  0  0  0  0
   -2.0935   -0.9144    0.2950 C   0  0  0  0  0  0  0  0  0  0  0  0
   -3.3846   -0.1361    0.0969 C   0  0  0  0  0  0  0  0  0  0  0  0
   -3.3396    1.1248    0.8667 N   0  0  0  0  0  4  0  0  0  0  0  0
   -3.0745    1.0332    2.0780 O   0  0  0  0  0  1  0  0  0  0  0  0
   -3.4978    2.2071    0.2836 O   0  0  0  0  0  0  0  0  0  0  0  0
   -3.6685    0.1592   -1.3268 N   0  0  0  0  0  4  0  0  0  0  0  0
   -2.7256    0.0934   -2.1313 O   0  0  0  0  0  1  0  0  0  0  0  0
   -4.8301    0.4336   -1.6664 O   0  0  0  0  0  0  0  0  0  0  0  0
   -4.5387   -0.9352    0.5787 N   0  0  0  0  0  4  0  0  0  0  0  0
   -4.4970   -2.1595    0.3724 O   0  0  0  0  0  1  0  0  0  0  0  0
   -5.4820   -0.3718    1.1529 O   0  0  0  0  0  0  0  0  0  0  0  0
    3.7219    1.8004    0.2349 N   0  0  0  0  0  4  0  0  0  0  0  0
    4.8471    2.3042    0.2262 O   0  0  0  0  0  1  0  0  0  0  0  0
    2.7165    2.2604    0.7848 O   0  0  0  0  0  0  0  0  0  0  0  0
    5.3730   -0.3749   -0.0069 H   0  0  0  0  0  0  0  0  0  0  0  0
    4.5778   -0.9070   -1.5018 H   0  0  0  0  0  0  0  0  0  0  0  0
    5.4167    0.6218   -1.4845 H   0  0  0  0  0  0  0  0  0  0  0  0
    2.7861   -0.4032    1.2458 H   0  0  0  0  0  0  0  0  0  0  0  0
    2.7616   -1.3308   -0.2507 H   0  0  0  0  0  0  0  0  0  0  0  0
    1.0670    1.0580   -0.0938 H   0  0  0  0  0  0  0  0  0  0  0  0
   -2.0261   -1.2908    1.3258 H   0  0  0  0  0  0  0  0  0  0  0  0
   -2.0531   -1.7843   -0.3761 H   0  0  0  0  0  0  0  0  0  0  0  0
  1  2  1  0
  2  3  1  0
  3  4  1  0
  4  5  1  0
  5  6  2  0
  5  7  1  0
  7  8  1  0
  8  9  1  0
  9 10  1  0
 10 11  1  0
 10 12  2  0
  9 13  1  0
 13 14  1  0
 13 15  2  0
  9 16  1  0
 16 17  1  0
 16 18  2  0
  2 19  1  0
 19 20  1  0
 19 21  2  0
  1 22  1  0
  1 23  1  0
  1 24  1  0
  3 25  1  0
  3 26  1  0
  4 27  1  0
  8 28  1  0
  8 29  1  0
M  CHG  8  10   1  11  -1  13   1  14  -1  16   1  17  -1  19   1  20  -1
M  END
$$$$
