
     RDKit          3D

 32 33  0  0  0  0  0  0  0  0999 V2000
    2.7855    0.4685   -2.2927 N   0  0  0  0  0  0  0  0  0  0  0  0
    2.7953    0.7045   -0.9701 C   0  0  0  0  0  0  0  0  0  0  0  0
    3.3139    1.7434   -0.3650 N   0  0  0  0  0  0  0  0  0  0  0  0
    3.0400    1.4981    0.9575 C   0  0  0  0  0  0  0  0  0  0  0  0
    3.4146    2.4134    2.0262 N   0  0  0  0  0  4  0  0  0  0  0  0
    3.0312    2.1427    3.1764 O   0  0  0  0  0  1  0  0  0  0  0  0
    4.0885    3.4063    1.7142 O   0  0  0  0  0  0  0  0  0  0  0  0
    2.3821    0.3522    1.2184 N   0  0  0  0  0  0  0  0  0  0  0  0
    2.2531   -0.1454   -0.0341 N   0  0  0  0  0  0  0  0  0  0  0  0
    1.6541   -1.4572   -0.2463 C   0  0  0  0  0  0  0  0  0  0  0  0
    0.2419   -1.2623   -0.5551 N   0  0  0  0  0  0  0  0  0  0  0  0
   -0.5629   -0.9770    0.6396 C   0  0  0  0  0  0  0  0  0  0  0  0
   -1.8196   -0.3303    0.2524 N   0  0  0  0  0  0  0  0  0  0  0  0
   -1.8990    0.4566   -0.8502 N   0  0  0  0  0  0  0  0  0  0  0  0
   -3.2036    0.7819   -0.8272 C   0  0  0  0  0  0  0  0  0  0  0  0
   -3.7952    1.6150   -1.8646 N   0  0  0  0  0  4  0  0  0  0  0  0
   -3.0674    1.9749   -2.8044 O   0  0  0  0  0  1  0  0  0  0  0  0
   -4.9929    1.9123   -1.7373 O   0  0  0  0  0  0  0  0  0  0  0  0
   -3.9204    0.3042    0.2426 N   0  0  0  0  0  0  0  0  0  0  0  0
   -3.0238   -0.3666    0.9207 C   0  0  0  0  0  0  0  0  0  0  0  0
   -3.2273   -1.0032    2.0876 N   0  0  0  0  0  0  0  0  0  0  0  0
   -0.2406   -2.2436   -1.3700 N   0  0  0  0  0  4  0  0  0  0  0  0
   -1.1981   -2.9020   -0.9644 O   0  0  0  0  0  1  0  0  0  0  0  0
    0.3654   -2.3841   -2.4333 O   0  0  0  0  0  0  0  0  0  0  0  0
    2.0105   -0.0331   -2.7244 H   0  0  0  0  0  0  0  0  0  0  0  0
    3.0629    1.2611   -2.8714 H   0  0  0  0  0  0  0  0  0  0  0  0
    1.8096   -2.0617    0.6564 H   0  0  0  0  0  0  0  0  0  0  0  0
    2.2431   -1.9211   -1.0472 H   0  0  0  0  0  0  0  0  0  0  0  0
   -0.7851   -1.8698    1.2362 H   0  0  0  0  0  0  0  0  0  0  0  0
   -0.0919   -0.2423    1.2994 H   0  0  0  0  0  0  0  0  0  0  0  0
   -4.1483   -0.8377    2.4945 H   0  0  0  0  0  0  0  0  0  0  0  0
   -2.5155   -0.9976    2.8115 H   0  0  0  0  0  0  0  0  0  0  0  0
  1  2  1  0
  2  3  2  0
  3  4  1  0
  4  5  1  0
  5  6  1  0
  5  7  2  0
  4  8  2  0
  8  9  1  0
  9 10  1  0
 10 11  1  0
 11 12  1  0
 12 13  1  0
 13 14  1  0
 14 15  2  0
 15 16  1  0
 16 17  1  0
 16 18  2  0
 15 19  1  0
 19 20  2  0
 20 21  1  0
 11 22  1  0
 22 23  1  0
 22 24  2  0
  9  2  1  0
 20 13  1  0
  1 25  1  0
  1 26  1  0
 10 27  1  0
 10 28  1  0
 12 29  1  0
 12 30  1  0
 21 31  1  0
 21 32  1  0
M  CHG  6   5   1   6  -1  16   1  17  -1  22   1  23  -1
M  END
$$$$
