
     RDKit          3D

 32 33  0  0  0  0  0  0  0  0999 V2000
   -5.0851    2.9204   -0.1176 O   0  0  0  0  0  1  0  0  0  0  0  0
   -3.8598    2.7569   -0.2007 N   0  0  0  0  0  4  0  0  0  0  0  0
   -3.0273    3.6495   -0.4229 O   0  0  0  0  0  0  0  0  0  0  0  0
   -3.3623    1.3953   -0.0380 C   0  0  0  0  0  0  0  0  0  0  0  0
   -4.1858    0.2980    0.0105 N   0  0  0  0  0  0  0  0  0  0  0  0
   -3.3168   -0.6869    0.1153 C   0  0  0  0  0  0  0  0  0  0  0  0
   -3.6612   -2.0691    0.1237 N   0  0  0  0  0  4  0  0  0  0  0  0
   -4.7186   -2.3836    0.6761 O   0  0  0  0  0  1  0  0  0  0  0  0
   -2.8575   -2.8372   -0.4165 O   0  0  0  0  0  0  0  0  0  0  0  0
   -2.0381   -0.2150    0.1694 N   0  0  0  0  0  0  0  0  0  0  0  0
   -0.7671   -0.9109    0.3984 C   0  0  0  0  0  0  0  0  0  0  0  0
   -0.0560   -0.9318   -0.8690 N   0  0  0  0  0  0  0  0  0  0  0  0
    0.7735    0.2407   -1.1669 C   0  0  0  0  0  0  0  0  0  0  0  0
    2.0028    0.2595   -0.3636 N   0  0  0  0  0  0  0  0  0  0  0  0
    2.9145   -0.7381   -0.4947 N   0  0  0  0  0  0  0  0  0  0  0  0
    3.9406   -0.2710    0.2423 C   0  0  0  0  0  0  0  0  0  0  0  0
    5.1809   -1.0257    0.3926 N   0  0  0  0  0  4  0  0  0  0  0  0
    5.2858   -2.0960   -0.2236 O   0  0  0  0  0  1  0  0  0  0  0  0
    6.0444   -0.5369    1.1356 O   0  0  0  0  0  0  0  0  0  0  0  0
    3.7279    0.9423    0.8512 N   0  0  0  0  0  0  0  0  0  0  0  0
    2.5098    1.2318    0.4470 C   0  0  0  0  0  0  0  0  0  0  0  0
    1.7765    2.3737    0.8620 N   0  0  0  0  0  4  0  0  0  0  0  0
    0.6427    2.1508    1.3009 O   0  0  0  0  0  1  0  0  0  0  0  0
    2.3206    3.4720    0.7303 O   0  0  0  0  0  0  0  0  0  0  0  0
    0.4634   -2.1256   -1.2792 N   0  0  0  0  0  4  0  0  0  0  0  0
    0.8553   -2.1539   -2.4454 O   0  0  0  0  0  1  0  0  0  0  0  0
    0.4505   -3.0480   -0.4657 O   0  0  0  0  0  0  0  0  0  0  0  0
   -2.0421    1.1371    0.0352 N   0  0  0  0  0  0  0  0  0  0  0  0
   -1.0182   -1.8822    0.8341 H   0  0  0  0  0  0  0  0  0  0  0  0
   -0.2333   -0.3640    1.1832 H   0  0  0  0  0  0  0  0  0  0  0  0
    0.2421    1.1812   -1.0122 H   0  0  0  0  0  0  0  0  0  0  0  0
    1.0979    0.2666   -2.2155 H   0  0  0  0  0  0  0  0  0  0  0  0
  1  2  1  0
  2  3  2  0
  2  4  1  0
  4  5  1  0
  5  6  2  0
  6  7  1  0
  7  8  1  0
  7  9  2  0
  6 10  1  0
 10 11  1  0
 11 12  1  0
 12 13  1  0
 13 14  1  0
 14 15  1  0
 15 16  2  0
 16 17  1  0
 17 18  1  0
 17 19  2  0
 16 20  1  0
 20 21  2  0
 21 22  1  0
 22 23  1  0
 22 24  2  0
 12 25  1  0
 25 26  1  0
 25 27  2  0
 10 28  1  0
 21 14  1  0
 28  4  2  0
 11 29  1  0
 11 30  1  0
 13 31  1  0
 13 32  1  0
M  CHG  8   1  -1   2   1   7   1   8  -1  17   1  18  -1  22   1  23  -1
M  CHG  2  25   1  26  -1
M  END
$$$$
