
     RDKit          3D

 38 39  0  0  0  0  0  0  0  0999 V2000
   -4.3324    0.8142    1.0151 N   0  0  0  0  0  0  0  0  0  0  0  0
   -3.0888    0.3180    0.8296 C   0  0  0  0  0  0  0  0  0  0  0  0
   -1.8346    0.9091    1.1313 C   0  0  0  0  0  0  0  0  0  0  0  0
   -1.5407    2.2165    1.6941 N   0  0  0  0  0  4  0  0  0  0  0  0
   -2.5116    2.9513    1.9324 O   0  0  0  0  0  1  0  0  0  0  0  0
   -0.3521    2.5103    1.8994 O   0  0  0  0  0  0  0  0  0  0  0  0
   -0.8031    0.0871    0.8523 N   0  0  0  0  0  0  0  0  0  0  0  0
   -1.3959   -0.9939    0.2727 N   0  0  0  0  0  0  0  0  0  0  0  0
   -0.5019   -1.9990   -0.3129 C   0  0  0  0  0  0  0  0  0  0  0  0
    0.0162   -1.4548   -1.5676 N   0  0  0  0  0  0  0  0  0  0  0  0
    1.4699   -1.3385   -1.6346 C   0  0  0  0  0  0  0  0  0  0  0  0
    1.8873   -0.1785   -0.8302 N   0  0  0  0  0  0  0  0  0  0  0  0
    1.4700    1.0462   -1.2579 N   0  0  0  0  0  0  0  0  0  0  0  0
    2.0072    1.9011   -0.3646 C   0  0  0  0  0  0  0  0  0  0  0  0
    1.7068    3.3157   -0.4955 N   0  0  0  0  0  4  0  0  0  0  0  0
    0.7245    3.6450   -1.1786 O   0  0  0  0  0  1  0  0  0  0  0  0
    2.4736    4.1017    0.0845 O   0  0  0  0  0  0  0  0  0  0  0  0
    2.8530    1.2450    0.5662 C   0  0  0  0  0  0  0  0  0  0  0  0
    3.5913    1.7756    1.5648 N   0  0  0  0  0  0  0  0  0  0  0  0
    2.7379   -0.0870    0.2399 C   0  0  0  0  0  0  0  0  0  0  0  0
    3.3436   -1.2133    0.8528 N   0  0  0  0  0  4  0  0  0  0  0  0
    2.7158   -2.2774    0.8216 O   0  0  0  0  0  1  0  0  0  0  0  0
    4.4528   -1.0430    1.3688 O   0  0  0  0  0  0  0  0  0  0  0  0
   -0.5888   -1.9712   -2.6703 N   0  0  0  0  0  4  0  0  0  0  0  0
   -1.8181   -2.0196   -2.6238 O   0  0  0  0  0  1  0  0  0  0  0  0
    0.1353   -2.3465   -3.5918 O   0  0  0  0  0  0  0  0  0  0  0  0
   -2.7610   -0.9202    0.3260 C   0  0  0  0  0  0  0  0  0  0  0  0
   -3.6128   -1.9800   -0.0802 N   0  0  0  0  0  4  0  0  0  0  0  0
   -4.7119   -1.6661   -0.5501 O   0  0  0  0  0  1  0  0  0  0  0  0
   -3.2044   -3.1296    0.1176 O   0  0  0  0  0  0  0  0  0  0  0  0
   -5.1447    0.3983    0.5521 H   0  0  0  0  0  0  0  0  0  0  0  0
   -4.4811    1.7999    1.2473 H   0  0  0  0  0  0  0  0  0  0  0  0
   -1.0000   -2.9639   -0.4195 H   0  0  0  0  0  0  0  0  0  0  0  0
    0.2754   -2.1592    0.4403 H   0  0  0  0  0  0  0  0  0  0  0  0
    1.9942   -2.2484   -1.3407 H   0  0  0  0  0  0  0  0  0  0  0  0
    1.8343   -1.0756   -2.6378 H   0  0  0  0  0  0  0  0  0  0  0  0
    4.3017    1.2432    2.0697 H   0  0  0  0  0  0  0  0  0  0  0  0
    3.6930    2.7877    1.6775 H   0  0  0  0  0  0  0  0  0  0  0  0
  1  2  1  0
  2  3  1  0
  3  4  1  0
  4  5  1  0
  4  6  2  0
  3  7  2  0
  7  8  1  0
  8  9  1  0
  9 10  1  0
 10 11  1  0
 11 12  1  0
 12 13  1  0
 13 14  2  0
 14 15  1  0
 15 16  1  0
 15 17  2  0
 14 18  1  0
 18 19  1  0
 18 20  2  0
 20 21  1  0
 21 22  1  0
 21 23  2  0
 10 24  1  0
 24 25  1  0
 24 26  2  0
  8 27  1  0
 27 28  1  0
 28 29  1  0
 28 30  2  0
 20 12  1  0
 27  2  2  0
  1 31  1  0
  1 32  1  0
  9 33  1  0
  9 34  1  0
 11 35  1  0
 11 36  1  0
 19 37  1  0
 19 38  1  0
M  CHG  8   4   1   5  -1  15   1  16  -1  21   1  22  -1  24   1  25  -1
M  CHG  2  28   1  29  -1
M  END
$$$$
