
     RDKit          3D

 30 31  0  0  0  0  0  0  0  0999 V2000
   -5.8380    1.1055    1.8714 O   0  0  0  0  0  1  0  0  0  0  0  0
   -4.6705    1.4305    1.5992 N   0  0  0  0  0  4  0  0  0  0  0  0
   -3.9290    2.0206    2.4032 O   0  0  0  0  0  0  0  0  0  0  0  0
   -4.1175    1.1238    0.2481 C   0  0  0  0  0  0  0  0  0  0  0  0
   -2.6384    0.9651    0.2480 C   0  0  0  0  0  0  0  0  0  0  0  0
   -1.8724   -0.0872    0.0229 N   0  0  0  0  0  0  0  0  0  0  0  0
   -0.5951    0.4219    0.1449 C   0  0  0  0  0  0  0  0  0  0  0  0
    0.5952   -0.4282   -0.0267 C   0  0  0  0  0  0  0  0  0  0  0  0
    0.5601   -1.7448   -0.2680 N   0  0  0  0  0  0  0  0  0  0  0  0
    1.8987   -2.1077   -0.3451 O   0  0  0  0  0  0  0  0  0  0  0  0
    2.6379   -0.9682   -0.1524 C   0  0  0  0  0  0  0  0  0  0  0  0
    4.1174   -1.1224   -0.1752 C   0  0  0  0  0  0  0  0  0  0  0  0
    4.6456   -1.4965   -1.5194 N   0  0  0  0  0  4  0  0  0  0  0  0
    3.8911   -2.1282   -2.2778 O   0  0  0  0  0  1  0  0  0  0  0  0
    5.8071   -1.1843   -1.8293 O   0  0  0  0  0  0  0  0  0  0  0  0
    4.8017    0.1444    0.2026 N   0  0  0  0  0  4  0  0  0  0  0  0
    4.6226    1.1322   -0.5319 O   0  0  0  0  0  1  0  0  0  0  0  0
    5.4866    0.1862    1.2368 O   0  0  0  0  0  0  0  0  0  0  0  0
    4.5739   -2.1797    0.7718 N   0  0  0  0  0  4  0  0  0  0  0  0
    5.5419   -2.8971    0.4767 O   0  0  0  0  0  1  0  0  0  0  0  0
    3.9325   -2.3114    1.8292 O   0  0  0  0  0  0  0  0  0  0  0  0
    1.8726    0.0878    0.0570 N   0  0  0  0  0  0  0  0  0  0  0  0
   -0.5609    1.7309    0.4261 N   0  0  0  0  0  0  0  0  0  0  0  0
   -1.8996    2.0953    0.4916 O   0  0  0  0  0  0  0  0  0  0  0  0
   -4.7974   -0.1190   -0.2090 N   0  0  0  0  0  4  0  0  0  0  0  0
   -4.6426   -1.1426    0.4804 O   0  0  0  0  0  1  0  0  0  0  0  0
   -5.4539   -0.1065   -1.2623 O   0  0  0  0  0  0  0  0  0  0  0  0
   -4.5531    2.2304   -0.6515 N   0  0  0  0  0  4  0  0  0  0  0  0
   -5.5292    2.9307   -0.3414 O   0  0  0  0  0  1  0  0  0  0  0  0
   -3.8873    2.4187   -1.6850 O   0  0  0  0  0  0  0  0  0  0  0  0
  1  2  1  0
  2  3  2  0
  2  4  1  0
  4  5  1  0
  5  6  2  0
  6  7  1  0
  7  8  1  0
  8  9  2  0
  9 10  1  0
 10 11  1  0
 11 12  1  0
 12 13  1  0
 13 14  1  0
 13 15  2  0
 12 16  1  0
 16 17  1  0
 16 18  2  0
 12 19  1  0
 19 20  1  0
 19 21  2  0
 11 22  2  0
  7 23  2  0
 23 24  1  0
  4 25  1  0
 25 26  1  0
 25 27  2  0
  4 28  1  0
 28 29  1  0
 28 30  2  0
 22  8  1  0
 24  5  1  0
M  CHG  8   1  -1   2   1  13   1  14  -1  16   1  17  -1  19   1  20  -1
M  CHG  4  25   1  26  -1  28   1  29  -1
M  END
$$$$
