
     RDKit          3D

 30 31  0  0  0  0  0  0  0  0999 V2000
    2.0963   -2.3562   -2.1607 O   0  0  0  0  0  1  0  0  0  0  0  0
    1.8057   -1.4298   -1.3862 N   0  0  0  0  0  4  0  0  0  0  0  0
    0.9704   -1.5306   -0.4702 O   0  0  0  0  0  0  0  0  0  0  0  0
    2.4941   -0.1286   -1.6183 C   0  0  0  0  0  0  0  0  0  0  0  0
    1.7715    1.0473   -1.0729 C   0  0  0  0  0  0  0  0  0  0  0  0
    1.0954    1.9049   -1.8580 N   0  0  0  0  0  0  0  0  0  0  0  0
    0.5524    2.7426   -0.9504 N   0  0  0  0  0  0  0  0  0  0  0  0
    0.9121    2.4097    0.3258 C   0  0  0  0  0  0  0  0  0  0  0  0
    0.4093    3.0863    1.3900 N   0  0  0  0  0  0  0  0  0  0  0  0
   -0.2387    2.4797    2.2836 N   0  0  0  0  0  0  0  0  0  0  0  0
   -0.7637    1.2487    2.0489 C   0  0  0  0  0  0  0  0  0  0  0  0
   -1.3809    0.7538    0.9929 N   0  0  0  0  0  0  0  0  0  0  0  0
   -1.6292   -0.5627    1.3168 C   0  0  0  0  0  0  0  0  0  0  0  0
   -2.2021   -1.5517    0.3663 C   0  0  0  0  0  0  0  0  0  0  0  0
   -3.5303   -2.0804    0.7785 N   0  0  0  0  0  4  0  0  0  0  0  0
   -3.7924   -3.2474    0.4424 O   0  0  0  0  0  1  0  0  0  0  0  0
   -4.2984   -1.3568    1.4325 O   0  0  0  0  0  0  0  0  0  0  0  0
   -2.4388   -0.9871   -0.9934 N   0  0  0  0  0  4  0  0  0  0  0  0
   -3.3316   -0.1397   -1.1570 O   0  0  0  0  0  1  0  0  0  0  0  0
   -1.7036   -1.3957   -1.9083 O   0  0  0  0  0  0  0  0  0  0  0  0
   -1.1983   -0.9009    2.5463 N   0  0  0  0  0  0  0  0  0  0  0  0
   -0.6793    0.2613    2.9895 N   0  0  0  0  0  0  0  0  0  0  0  0
    1.7201    1.3686    0.2642 N   0  0  0  0  0  0  0  0  0  0  0  0
    3.8422   -0.2909   -1.0118 N   0  0  0  0  0  4  0  0  0  0  0  0
    4.8046    0.0885   -1.6990 O   0  0  0  0  0  1  0  0  0  0  0  0
    3.9493   -0.7724    0.1269 O   0  0  0  0  0  0  0  0  0  0  0  0
    2.6298   -0.0392   -2.7032 H   0  0  0  0  0  0  0  0  0  0  0  0
   -0.0738    3.4818   -1.2477 H   0  0  0  0  0  0  0  0  0  0  0  0
   -1.5351   -2.4147    0.2583 H   0  0  0  0  0  0  0  0  0  0  0  0
   -0.2570    0.3116    3.9089 H   0  0  0  0  0  0  0  0  0  0  0  0
  1  2  1  0
  2  3  2  0
  2  4  1  0
  4  5  1  0
  5  6  2  0
  6  7  1  0
  7  8  1  0
  8  9  1  0
  9 10  2  3
 10 11  1  0
 11 12  2  0
 12 13  1  0
 13 14  1  0
 14 15  1  0
 15 16  1  0
 15 17  2  0
 14 18  1  0
 18 19  1  0
 18 20  2  0
 13 21  2  0
 21 22  1  0
  8 23  2  0
  4 24  1  0
 24 25  1  0
 24 26  2  0
 22 11  1  0
 23  5  1  0
  4 27  1  0
  7 28  1  0
 14 29  1  0
 22 30  1  0
M  CHG  8   1  -1   2   1  15   1  16  -1  18   1  19  -1  24   1  25  -1
M  END
$$$$
