
     RDKit          3D

 36 35  0  0  0  0  0  0  0  0999 V2000
    1.6612   -3.9532    0.3696 O   0  0  0  0  0  1  0  0  0  0  0  0
    1.7935   -3.4180   -0.7319 N   0  0  0  0  0  4  0  0  0  0  0  0
    2.0599   -3.9066   -1.8262 O   0  0  0  0  0  0  0  0  0  0  0  0
    1.6390   -2.0093   -0.7817 O   0  0  0  0  0  0  0  0  0  0  0  0
    1.3543   -1.4444    0.4916 C   0  0  0  0  0  0  0  0  0  0  0  0
    1.1957    0.0945    0.3898 C   0  0  0  0  0  0  0  0  0  0  0  0
    2.5551    0.7800    0.0707 C   0  0  0  0  0  0  0  0  0  0  0  0
    3.4015    0.6360    1.2154 O   0  0  0  0  0  0  0  0  0  0  0  0
    4.6466    1.2961    1.0618 N   0  0  0  0  0  4  0  0  0  0  0  0
    4.8341    1.9032    0.0083 O   0  0  0  0  0  1  0  0  0  0  0  0
    5.3725    1.1656    2.0439 O   0  0  0  0  0  0  0  0  0  0  0  0
    0.0514    0.5471   -0.4322 N   0  0  0  0  0  0  0  0  0  0  0  0
   -1.2811    0.4917    0.2124 C   0  0  0  0  0  0  0  0  0  0  0  0
   -1.9091    1.9029    0.3215 C   0  0  0  0  0  0  0  0  0  0  0  0
   -3.0207    1.8368    1.2152 O   0  0  0  0  0  0  0  0  0  0  0  0
   -3.6253    3.1014    1.4283 N   0  0  0  0  0  4  0  0  0  0  0  0
   -4.5832    3.0430    2.1945 O   0  0  0  0  0  1  0  0  0  0  0  0
   -3.1257    4.0656    0.8494 O   0  0  0  0  0  0  0  0  0  0  0  0
   -2.3004   -0.5184   -0.3880 C   0  0  0  0  0  0  0  0  0  0  0  0
   -1.6630   -1.7850   -0.5314 O   0  0  0  0  0  0  0  0  0  0  0  0
   -2.5252   -2.7762   -1.0615 N   0  0  0  0  0  4  0  0  0  0  0  0
   -1.9611   -3.8574   -1.2027 O   0  0  0  0  0  1  0  0  0  0  0  0
   -3.6881   -2.4450   -1.2886 O   0  0  0  0  0  0  0  0  0  0  0  0
    0.1375    0.6327   -1.8008 N   0  0  0  0  0  4  0  0  0  0  0  0
    1.2139    0.3438   -2.3137 O   0  0  0  0  0  1  0  0  0  0  0  0
   -0.8724    1.0235   -2.3831 O   0  0  0  0  0  0  0  0  0  0  0  0
    0.4332   -1.8732    0.9036 H   0  0  0  0  0  0  0  0  0  0  0  0
    2.1730   -1.6690    1.1876 H   0  0  0  0  0  0  0  0  0  0  0  0
    0.9783    0.4199    1.4184 H   0  0  0  0  0  0  0  0  0  0  0  0
    2.3784    1.8470   -0.1164 H   0  0  0  0  0  0  0  0  0  0  0  0
    3.0445    0.3168   -0.7926 H   0  0  0  0  0  0  0  0  0  0  0  0
   -1.1379    0.1438    1.2457 H   0  0  0  0  0  0  0  0  0  0  0  0
   -2.2445    2.2576   -0.6598 H   0  0  0  0  0  0  0  0  0  0  0  0
   -1.1561    2.5921    0.7260 H   0  0  0  0  0  0  0  0  0  0  0  0
   -3.1434   -0.6154    0.3087 H   0  0  0  0  0  0  0  0  0  0  0  0
   -2.6865   -0.1697   -1.3521 H   0  0  0  0  0  0  0  0  0  0  0  0
  1  2  1  0
  2  3  2  0
  2  4  1  0
  4  5  1  0
  5  6  1  0
  6  7  1  0
  7  8  1  0
  8  9  1  0
  9 10  1  0
  9 11  2  0
  6 12  1  0
 12 13  1  0
 13 14  1  0
 14 15  1  0
 15 16  1  0
 16 17  1  0
 16 18  2  0
 13 19  1  0
 19 20  1  0
 20 21  1  0
 21 22  1  0
 21 23  2  0
 12 24  1  0
 24 25  1  0
 24 26  2  0
  5 27  1  0
  5 28  1  0
  6 29  1  0
  7 30  1  0
  7 31  1  0
 13 32  1  0
 14 33  1  0
 14 34  1  0
 19 35  1  0
 19 36  1  0
M  CHG  8   1  -1   2   1   9   1  10  -1  16   1  17  -1  21   1  22  -1
M  CHG  2  24   1  25  -1
M  END
$$$$
