
     RDKit          3D

 20 21  0  0  0  0  0  0  0  0999 V2000
    3.3581   -2.1181    0.8294 O   0  0  0  0  0  1  0  0  0  0  0  0
    3.1245   -0.9687    0.4374 N   0  0  0  0  0  4  0  0  0  0  0  0
    3.9792   -0.1122    0.1848 O   0  0  0  0  0  0  0  0  0  0  0  0
    1.7153   -0.5920    0.2586 C   0  0  0  0  0  0  0  0  0  0  0  0
    0.7081   -1.5235    0.4994 C   0  0  0  0  0  0  0  0  0  0  0  0
   -0.6237   -1.1179    0.3176 C   0  0  0  0  0  0  0  0  0  0  0  0
   -1.6540   -2.0934    0.5810 N   0  0  0  0  0  4  0  0  0  0  0  0
   -2.1973   -2.0379    1.6890 O   0  0  0  0  0  1  0  0  0  0  0  0
   -1.8591   -2.9296   -0.3052 O   0  0  0  0  0  0  0  0  0  0  0  0
   -1.0130    0.1628   -0.0970 C   0  0  0  0  0  0  0  0  0  0  0  0
   -2.2709    0.5358   -0.2796 N   0  0  0  0  0  0  0  0  0  0  0  0
   -2.5068    1.7795   -0.6720 N   0  0  0  0  0  4  0  0  0  0  0  0
   -3.7037    2.0865   -0.8339 O   0  0  0  0  0  1  0  0  0  0  0  0
   -1.6243    2.7011   -0.9081 N   0  0  0  0  0  0  0  0  0  0  0  0
   -0.3847    2.3296   -0.7332 N   0  0  0  0  0  4  0  0  0  0  0  0
    0.4740    3.2238   -0.9659 O   0  0  0  0  0  1  0  0  0  0  0  0
    0.0127    1.0641   -0.3258 C   0  0  0  0  0  0  0  0  0  0  0  0
    1.3785    0.7018   -0.1519 C   0  0  0  0  0  0  0  0  0  0  0  0
    0.9345   -2.5402    0.8210 H   0  0  0  0  0  0  0  0  0  0  0  0
    2.1525    1.4488   -0.3454 H   0  0  0  0  0  0  0  0  0  0  0  0
  1  2  1  0
  2  3  2  0
  2  4  1  0
  4  5  2  0
  5  6  1  0
  6  7  1  0
  7  8  1  0
  7  9  2  0
  6 10  2  0
 10 11  1  0
 11 12  2  0
 12 13  1  0
 12 14  1  0
 14 15  2  0
 15 16  1  0
 15 17  1  0
 17 18  2  0
 17 10  1  0
 18  4  1  0
  5 19  1  0
 18 20  1  0
M  CHG  8   1  -1   2   1   7   1   8  -1  12   1  13  -1  15   1  16  -1
M  END
$$$$
