
     RDKit          3D

 20 19  0  0  0  0  0  0  0  0999 V2000
   -1.1535   -1.2586   -0.6715 C   0  0  0  0  0  0  0  0  0  0  0  0
   -0.5474    0.0406   -0.1128 C   0  0  0  0  0  0  0  0  0  0  0  0
   -1.6081    0.7694    0.7293 C   0  0  0  0  0  0  0  0  0  0  0  0
   -0.1393    0.9413   -1.2898 C   0  0  0  0  0  0  0  0  0  0  0  0
    0.6719   -0.2787    0.7864 C   0  0  0  0  0  0  0  0  0  0  0  0
    1.6557   -1.0361    0.0861 O   0  0  0  0  0  0  0  0  0  0  0  0
    2.8430   -0.3312   -0.2215 N   0  0  0  0  0  4  0  0  0  0  0  0
    2.8936    0.8640    0.0680 O   0  0  0  0  0  1  0  0  0  0  0  0
    3.6838   -1.0413   -0.7702 O   0  0  0  0  0  0  0  0  0  0  0  0
   -2.0470   -1.0511   -1.2714 H   0  0  0  0  0  0  0  0  0  0  0  0
   -1.4472   -1.9364    0.1379 H   0  0  0  0  0  0  0  0  0  0  0  0
   -0.4433   -1.7915   -1.3132 H   0  0  0  0  0  0  0  0  0  0  0  0
   -2.4938    1.0103    0.1307 H   0  0  0  0  0  0  0  0  0  0  0  0
   -1.2146    1.7085    1.1343 H   0  0  0  0  0  0  0  0  0  0  0  0
   -1.9355    0.1523    1.5736 H   0  0  0  0  0  0  0  0  0  0  0  0
   -1.0097    1.2128   -1.8983 H   0  0  0  0  0  0  0  0  0  0  0  0
    0.5773    0.4425   -1.9509 H   0  0  0  0  0  0  0  0  0  0  0  0
    0.3185    1.8711   -0.9348 H   0  0  0  0  0  0  0  0  0  0  0  0
    0.3419   -0.9171    1.6162 H   0  0  0  0  0  0  0  0  0  0  0  0
    1.0537    0.6292    1.2683 H   0  0  0  0  0  0  0  0  0  0  0  0
  1  2  1  0
  2  3  1  0
  2  4  1  0
  2  5  1  0
  5  6  1  0
  6  7  1  0
  7  8  1  0
  7  9  2  0
  1 10  1  0
  1 11  1  0
  1 12  1  0
  3 13  1  0
  3 14  1  0
  3 15  1  0
  4 16  1  0
  4 17  1  0
  4 18  1  0
  5 19  1  0
  5 20  1  0
M  CHG  2   7   1   8  -1
M  END
$$$$
