
     RDKit          3D

 23 22  0  0  0  0  0  0  0  0999 V2000
    0.0620   -0.6708   -1.6044 C   0  0  0  0  0  0  0  0  0  0  0  0
    0.0856   -0.5184   -0.0710 C   0  0  0  0  0  0  0  0  0  0  0  0
    0.7802   -1.7518    0.5357 C   0  0  0  0  0  0  0  0  0  0  0  0
    0.8559    0.7704    0.3141 C   0  0  0  0  0  0  0  0  0  0  0  0
    2.2029    0.6879   -0.1497 O   0  0  0  0  0  0  0  0  0  0  0  0
    2.9692    1.8293    0.1896 N   0  0  0  0  0  4  0  0  0  0  0  0
    4.1283    1.7606   -0.2134 O   0  0  0  0  0  1  0  0  0  0  0  0
    2.4039    2.7182    0.8280 O   0  0  0  0  0  0  0  0  0  0  0  0
   -1.3614   -0.4445    0.4760 C   0  0  0  0  0  0  0  0  0  0  0  0
   -2.0355    0.6813   -0.0822 O   0  0  0  0  0  0  0  0  0  0  0  0
   -3.3769    0.7907    0.3612 N   0  0  0  0  0  4  0  0  0  0  0  0
   -3.9623    1.7524   -0.1313 O   0  0  0  0  0  1  0  0  0  0  0  0
   -3.7768   -0.0568    1.1603 O   0  0  0  0  0  0  0  0  0  0  0  0
   -0.3749    0.2095   -2.0883 H   0  0  0  0  0  0  0  0  0  0  0  0
    1.0708   -0.8041   -2.0106 H   0  0  0  0  0  0  0  0  0  0  0  0
   -0.5299   -1.5435   -1.9028 H   0  0  0  0  0  0  0  0  0  0  0  0
    0.2282   -2.6694    0.3022 H   0  0  0  0  0  0  0  0  0  0  0  0
    0.8443   -1.6702    1.6265 H   0  0  0  0  0  0  0  0  0  0  0  0
    1.7981   -1.8744    0.1497 H   0  0  0  0  0  0  0  0  0  0  0  0
    0.8464    0.8794    1.4068 H   0  0  0  0  0  0  0  0  0  0  0  0
    0.3676    1.6427   -0.1389 H   0  0  0  0  0  0  0  0  0  0  0  0
   -1.3304   -0.3522    1.5698 H   0  0  0  0  0  0  0  0  0  0  0  0
   -1.8953   -1.3663    0.2090 H   0  0  0  0  0  0  0  0  0  0  0  0
  1  2  1  0
  2  3  1  0
  2  4  1  0
  4  5  1  0
  5  6  1  0
  6  7  1  0
  6  8  2  0
  2  9  1  0
  9 10  1  0
 10 11  1  0
 11 12  1  0
 11 13  2  0
  1 14  1  0
  1 15  1  0
  1 16  1  0
  3 17  1  0
  3 18  1  0
  3 19  1  0
  4 20  1  0
  4 21  1  0
  9 22  1  0
  9 23  1  0
M  CHG  4   6   1   7  -1  11   1  12  -1
M  END
$$$$
