
     RDKit          3D

 30 30  0  0  0  0  0  0  0  0999 V2000
   -3.0400   -2.9427   -1.0795 O   0  0  0  0  0  1  0  0  0  0  0  0
   -2.0141   -3.3835   -0.5592 N   0  0  0  0  0  4  0  0  0  0  0  0
   -1.7078   -4.5381   -0.2700 O   0  0  0  0  0  0  0  0  0  0  0  0
   -1.0012   -2.4499   -0.2317 O   0  0  0  0  0  0  0  0  0  0  0  0
   -1.3588   -1.1087   -0.5630 C   0  0  0  0  0  0  0  0  0  0  0  0
   -0.1988   -0.1345   -0.2029 C   0  0  0  0  0  0  0  0  0  0  0  0
   -0.6259    1.2988   -0.6339 C   0  0  0  0  0  0  0  0  0  0  0  0
   -1.8060    1.6860    0.0689 O   0  0  0  0  0  0  0  0  0  0  0  0
   -2.2429    2.9907   -0.2702 N   0  0  0  0  0  4  0  0  0  0  0  0
   -1.5893    3.6014   -1.1166 O   0  0  0  0  0  1  0  0  0  0  0  0
   -3.2485    3.3299    0.3492 O   0  0  0  0  0  0  0  0  0  0  0  0
    0.0735   -0.2036    1.3236 C   0  0  0  0  0  0  0  0  0  0  0  0
    1.3094    0.5873    1.7534 C   0  0  0  0  0  0  0  0  0  0  0  0
    2.5487    0.1578    0.9759 C   0  0  0  0  0  0  0  0  0  0  0  0
    2.3320    0.2292   -0.5317 C   0  0  0  0  0  0  0  0  0  0  0  0
    1.0884   -0.5497   -0.9634 C   0  0  0  0  0  0  0  0  0  0  0  0
   -1.5616   -1.0374   -1.6399 H   0  0  0  0  0  0  0  0  0  0  0  0
   -2.2619   -0.8280   -0.0059 H   0  0  0  0  0  0  0  0  0  0  0  0
    0.1733    2.0174   -0.4228 H   0  0  0  0  0  0  0  0  0  0  0  0
   -0.8237    1.3026   -1.7142 H   0  0  0  0  0  0  0  0  0  0  0  0
   -0.7967    0.1532    1.8876 H   0  0  0  0  0  0  0  0  0  0  0  0
    0.2232   -1.2480    1.6268 H   0  0  0  0  0  0  0  0  0  0  0  0
    1.4829    0.4346    2.8251 H   0  0  0  0  0  0  0  0  0  0  0  0
    1.1384    1.6610    1.6170 H   0  0  0  0  0  0  0  0  0  0  0  0
    2.8124   -0.8701    1.2548 H   0  0  0  0  0  0  0  0  0  0  0  0
    3.3985    0.7900    1.2569 H   0  0  0  0  0  0  0  0  0  0  0  0
    2.2513    1.2760   -0.8450 H   0  0  0  0  0  0  0  0  0  0  0  0
    3.2109   -0.1789   -1.0444 H   0  0  0  0  0  0  0  0  0  0  0  0
    1.2908   -1.6162   -0.8009 H   0  0  0  0  0  0  0  0  0  0  0  0
    0.9436   -0.4266   -2.0440 H   0  0  0  0  0  0  0  0  0  0  0  0
  1  2  1  0
  2  3  2  0
  2  4  1  0
  4  5  1  0
  5  6  1  0
  6  7  1  0
  7  8  1  0
  8  9  1  0
  9 10  1  0
  9 11  2  0
  6 12  1  0
 12 13  1  0
 13 14  1  0
 14 15  1  0
 15 16  1  0
 16  6  1  0
  5 17  1  0
  5 18  1  0
  7 19  1  0
  7 20  1  0
 12 21  1  0
 12 22  1  0
 13 23  1  0
 13 24  1  0
 14 25  1  0
 14 26  1  0
 15 27  1  0
 15 28  1  0
 16 29  1  0
 16 30  1  0
M  CHG  4   1  -1   2   1   9   1  10  -1
M  END
$$$$
