
     RDKit          3D

 17 17  0  0  0  0  0  0  0  0999 V2000
   -0.2498    2.2235    0.3557 C   0  0  0  0  0  0  0  0  0  0  0  0
    0.2527    0.9240   -0.0168 N   0  0  0  0  0  0  0  0  0  0  0  0
    1.4669    0.8185   -0.5889 N   0  0  0  0  0  0  0  0  0  0  0  0
    1.5469   -0.5089   -0.7694 C   0  0  0  0  0  0  0  0  0  0  0  0
    2.7174   -1.1273   -1.3768 N   0  0  0  0  0  4  0  0  0  0  0  0
    3.6496   -0.3857   -1.7271 O   0  0  0  0  0  1  0  0  0  0  0  0
    2.7039   -2.3609   -1.5039 O   0  0  0  0  0  0  0  0  0  0  0  0
    0.4575   -1.2249   -0.3437 N   0  0  0  0  0  0  0  0  0  0  0  0
   -0.3569   -0.3072    0.1316 C   0  0  0  0  0  0  0  0  0  0  0  0
   -1.5847   -0.4290    0.6855 N   0  0  0  0  0  0  0  0  0  0  0  0
   -2.2645   -1.5818    0.8748 N   0  0  0  0  0  4  0  0  0  0  0  0
   -3.3626   -1.3966    1.4019 O   0  0  0  0  0  1  0  0  0  0  0  0
   -1.7720   -2.6532    0.5316 O   0  0  0  0  0  0  0  0  0  0  0  0
   -1.1784    2.4043   -0.1911 H   0  0  0  0  0  0  0  0  0  0  0  0
   -0.4281    2.2286    1.4338 H   0  0  0  0  0  0  0  0  0  0  0  0
    0.4864    2.9895    0.0985 H   0  0  0  0  0  0  0  0  0  0  0  0
   -2.0842    0.3870    1.0043 H   0  0  0  0  0  0  0  0  0  0  0  0
  1  2  1  0
  2  3  1  0
  3  4  2  0
  4  5  1  0
  5  6  1  0
  5  7  2  0
  4  8  1  0
  8  9  2  0
  9 10  1  0
 10 11  1  0
 11 12  1  0
 11 13  2  0
  9  2  1  0
  1 14  1  0
  1 15  1  0
  1 16  1  0
 10 17  1  0
M  CHG  4   5   1   6  -1  11   1  12  -1
M  END
$$$$
