
     RDKit          3D

 10 10  0  0  0  0  0  0  0  0999 V2000
   -1.1083   -1.0143    0.7763 N   0  0  0  0  0  0  0  0  0  0  0  0
   -0.1888   -0.5868   -0.1169 C   0  0  0  0  0  0  0  0  0  0  0  0
    0.4171   -1.2527   -1.0762 N   0  0  0  0  0  0  0  0  0  0  0  0
    1.2710   -0.3546   -1.6917 N   0  0  0  0  0  0  0  0  0  0  0  0
    1.2009    0.8441   -1.1232 N   0  0  0  0  0  0  0  0  0  0  0  0
    0.2967    0.6964   -0.1600 N   0  0  0  0  0  0  0  0  0  0  0  0
    0.0063    1.7614    0.6675 O   0  0  0  0  0  0  0  0  0  0  0  0
   -1.1999   -2.0186    0.8987 H   0  0  0  0  0  0  0  0  0  0  0  0
   -1.2597   -0.4793    1.6275 H   0  0  0  0  0  0  0  0  0  0  0  0
    0.5647    2.4041    0.1980 H   0  0  0  0  0  0  0  0  0  0  0  0
  1  2  1  0
  2  3  2  0
  3  4  1  0
  4  5  2  0
  5  6  1  0
  6  7  1  0
  6  2  1  0
  1  8  1  0
  1  9  1  0
  7 10  1  0
M  END
$$$$
