
     RDKit          3D

 20 20  0  0  0  0  0  0  0  0999 V2000
    2.9252   -2.2508    2.7084 N   0  0  0  0  0  2  0  0  0  0  0  0
    2.8057   -2.0887    1.5863 N   0  0  0  0  0  4  0  0  0  0  0  0
    2.7072   -1.9250    0.3589 N   0  0  0  0  0  0  0  0  0  0  0  0
    1.6590   -1.1459   -0.0019 C   0  0  0  0  0  0  0  0  0  0  0  0
    0.7360   -0.6810    0.8216 N   0  0  0  0  0  0  0  0  0  0  0  0
   -0.1424    0.0587   -0.0243 N   0  0  0  0  0  0  0  0  0  0  0  0
   -0.9125    1.1296    0.6354 C   0  0  0  0  0  0  0  0  0  0  0  0
   -1.8742    0.5768    1.6797 C   0  0  0  0  0  0  0  0  0  0  0  0
   -2.8016    1.2223    2.1505 O   0  0  0  0  0  0  0  0  0  0  0  0
   -1.5942   -0.6822    2.0938 O   0  0  0  0  0  0  0  0  0  0  0  0
    0.2946    0.0632   -1.3737 C   0  0  0  0  0  0  0  0  0  0  0  0
   -0.0671    0.5608   -2.5020 N   0  0  0  0  0  0  0  0  0  0  0  0
   -1.2099    1.2431   -2.5032 N   0  0  0  0  0  4  0  0  0  0  0  0
   -2.2749    0.6182   -2.4211 O   0  0  0  0  0  1  0  0  0  0  0  0
   -1.1487    2.4761   -2.5789 O   0  0  0  0  0  0  0  0  0  0  0  0
    1.4145   -0.7304   -1.2699 N   0  0  0  0  0  0  0  0  0  0  0  0
   -0.2238    1.8208    1.1330 H   0  0  0  0  0  0  0  0  0  0  0  0
   -1.5196    1.6880   -0.0754 H   0  0  0  0  0  0  0  0  0  0  0  0
   -0.7759   -0.9925    1.6358 H   0  0  0  0  0  0  0  0  0  0  0  0
    2.0024   -0.9612   -2.0529 H   0  0  0  0  0  0  0  0  0  0  0  0
  1  2  2  0
  2  3  2  0
  3  4  1  0
  4  5  2  0
  5  6  1  0
  6  7  1  0
  7  8  1  0
  8  9  2  0
  8 10  1  0
  6 11  1  0
 11 12  2  3
 12 13  1  0
 13 14  1  0
 13 15  2  0
 11 16  1  0
 16  4  1  0
  7 17  1  0
  7 18  1  0
 10 19  1  0
 16 20  1  0
M  CHG  4   1  -1   2   1  13   1  14  -1
M  END
$$$$
