
     RDKit          3D

 15 16  0  0  0  0  0  0  0  0999 V2000
    4.2130   -0.2099   -0.2122 O   0  0  0  0  0  1  0  0  0  0  0  0
    3.2175   -0.2818    0.5243 N   0  0  0  0  0  4  0  0  0  0  0  0
    3.2461   -0.4999    1.7459 O   0  0  0  0  0  0  0  0  0  0  0  0
    1.9026   -0.0982   -0.0766 C   0  0  0  0  0  0  0  0  0  0  0  0
    1.7528    0.1434   -1.3906 N   0  0  0  0  0  0  0  0  0  0  0  0
    0.4116    0.2381   -1.4806 N   0  0  0  0  0  0  0  0  0  0  0  0
   -0.1818    0.0572   -0.2629 C   0  0  0  0  0  0  0  0  0  0  0  0
   -1.5766    0.1028   -0.0577 C   0  0  0  0  0  0  0  0  0  0  0  0
   -2.4993    0.3184   -0.9686 N   0  0  0  0  0  0  0  0  0  0  0  0
   -3.7003    0.2701   -0.2978 N   0  0  0  0  0  0  0  0  0  0  0  0
   -3.5164    0.0303    0.9948 N   0  0  0  0  0  0  0  0  0  0  0  0
   -2.1883   -0.0745    1.1459 N   0  0  0  0  0  0  0  0  0  0  0  0
    0.7347   -0.1594    0.6562 N   0  0  0  0  0  0  0  0  0  0  0  0
   -0.0307    0.4228   -2.3767 H   0  0  0  0  0  0  0  0  0  0  0  0
   -1.7849   -0.2594    2.0566 H   0  0  0  0  0  0  0  0  0  0  0  0
  1  2  1  0
  2  3  2  0
  2  4  1  0
  4  5  2  0
  5  6  1  0
  6  7  1  0
  7  8  1  0
  8  9  2  0
  9 10  1  0
 10 11  2  0
 11 12  1  0
  7 13  2  0
 12  8  1  0
 13  4  1  0
  6 14  1  0
 12 15  1  0
M  CHG  2   1  -1   2   1
M  END
$$$$
