
     RDKit          3D

 38 39  0  0  0  0  0  0  0  0999 V2000
    1.9015   -3.0805   -0.6777 C   0  0  0  0  0  0  0  0  0  0  0  0
    1.6398   -1.8914    0.1476 N   0  0  0  0  0  0  0  0  0  0  0  0
    0.5103   -1.1954   -0.1993 N   0  0  0  0  0  0  0  0  0  0  0  0
   -0.4884   -1.8754    0.1207 N   0  0  0  0  0  0  0  0  0  0  0  0
   -1.6203   -1.1931   -0.2629 N   0  0  0  0  0  0  0  0  0  0  0  0
   -2.7386   -2.1348   -0.4153 C   0  0  0  0  0  0  0  0  0  0  0  0
   -1.9700   -0.0636    0.4265 C   0  0  0  0  0  0  0  0  0  0  0  0
   -1.8347    0.2302    1.7038 N   0  0  0  0  0  0  0  0  0  0  0  0
   -2.3260    1.5028    1.8653 N   0  0  0  0  0  0  0  0  0  0  0  0
   -2.7146    2.0130    0.7064 N   0  0  0  0  0  0  0  0  0  0  0  0
   -2.4858    1.0444   -0.1963 N   0  0  0  0  0  0  0  0  0  0  0  0
   -2.6845    1.2950   -1.5986 C   0  0  0  0  0  0  0  0  0  0  0  0
   -1.4110    1.7742   -2.2774 C   0  0  0  0  0  0  0  0  0  0  0  0
   -1.6662    2.0470   -3.6515 O   0  0  0  0  0  0  0  0  0  0  0  0
    2.7693   -1.2146    0.5223 C   0  0  0  0  0  0  0  0  0  0  0  0
    4.0314   -1.5091    0.2645 N   0  0  0  0  0  0  0  0  0  0  0  0
    4.7962   -0.5136    0.8127 N   0  0  0  0  0  0  0  0  0  0  0  0
    4.0394    0.3787    1.4285 N   0  0  0  0  0  0  0  0  0  0  0  0
    2.7762   -0.0725    1.2890 N   0  0  0  0  0  0  0  0  0  0  0  0
    1.6991    0.6542    1.9220 C   0  0  0  0  0  0  0  0  0  0  0  0
    1.2840    1.8580    1.0860 C   0  0  0  0  0  0  0  0  0  0  0  0
    2.2508    2.9072    1.1398 O   0  0  0  0  0  0  0  0  0  0  0  0
    2.2482   -2.7901   -1.6762 H   0  0  0  0  0  0  0  0  0  0  0  0
    2.6570   -3.7248   -0.2127 H   0  0  0  0  0  0  0  0  0  0  0  0
    1.0006   -3.6930   -0.7962 H   0  0  0  0  0  0  0  0  0  0  0  0
   -3.0074   -2.5887    0.5461 H   0  0  0  0  0  0  0  0  0  0  0  0
   -3.6259   -1.6422   -0.8273 H   0  0  0  0  0  0  0  0  0  0  0  0
   -2.4622   -2.9362   -1.1096 H   0  0  0  0  0  0  0  0  0  0  0  0
   -3.4813    2.0398   -1.7079 H   0  0  0  0  0  0  0  0  0  0  0  0
   -3.0560    0.3808   -2.0731 H   0  0  0  0  0  0  0  0  0  0  0  0
   -0.6339    1.0043   -2.2301 H   0  0  0  0  0  0  0  0  0  0  0  0
   -1.0097    2.6770   -1.8036 H   0  0  0  0  0  0  0  0  0  0  0  0
   -1.9281    2.9827   -3.7253 H   0  0  0  0  0  0  0  0  0  0  0  0
    2.0622    0.9718    2.9067 H   0  0  0  0  0  0  0  0  0  0  0  0
    0.8672   -0.0344    2.0827 H   0  0  0  0  0  0  0  0  0  0  0  0
    0.3516    2.2744    1.4761 H   0  0  0  0  0  0  0  0  0  0  0  0
    1.1261    1.5954    0.0353 H   0  0  0  0  0  0  0  0  0  0  0  0
    3.1334    2.5226    0.9711 H   0  0  0  0  0  0  0  0  0  0  0  0
  1  2  1  0
  2  3  1  0
  3  4  2  0
  4  5  1  0
  5  6  1  0
  5  7  1  0
  7  8  2  0
  8  9  1  0
  9 10  2  0
 10 11  1  0
 11 12  1  0
 12 13  1  0
 13 14  1  0
  2 15  1  0
 15 16  2  0
 16 17  1  0
 17 18  2  0
 18 19  1  0
 19 20  1  0
 20 21  1  0
 21 22  1  0
 11  7  1  0
 19 15  1  0
  1 23  1  0
  1 24  1  0
  1 25  1  0
  6 26  1  0
  6 27  1  0
  6 28  1  0
 12 29  1  0
 12 30  1  0
 13 31  1  0
 13 32  1  0
 14 33  1  0
 20 34  1  0
 20 35  1  0
 21 36  1  0
 21 37  1  0
 22 38  1  0
M  END
$$$$
