
     RDKit          3D

 12 12  0  0  0  0  0  0  0  0999 V2000
   -2.2018    0.2590    0.4534 C   0  0  0  0  0  0  0  0  0  0  0  0
   -0.8317   -0.1419    0.2752 N   0  0  0  0  0  0  0  0  0  0  0  0
   -0.4998   -1.4047   -0.0575 N   0  0  0  0  0  0  0  0  0  0  0  0
    0.8291   -1.4123   -0.1011 N   0  0  0  0  0  0  0  0  0  0  0  0
    1.2139   -0.1427    0.2204 C   0  0  0  0  0  0  0  0  0  0  0  0
    2.5987    0.2541    0.2854 N   0  0  0  0  0  4  0  0  0  0  0  0
    3.4463   -0.6156    0.0327 O   0  0  0  0  0  1  0  0  0  0  0  0
    2.8541    1.4305    0.5871 O   0  0  0  0  0  0  0  0  0  0  0  0
    0.1991    0.7041    0.4746 N   0  0  0  0  0  0  0  0  0  0  0  0
   -2.4993    0.0093    1.4744 H   0  0  0  0  0  0  0  0  0  0  0  0
   -2.8245   -0.2755   -0.2681 H   0  0  0  0  0  0  0  0  0  0  0  0
   -2.2841    1.3357    0.2854 H   0  0  0  0  0  0  0  0  0  0  0  0
  1  2  1  0
  2  3  1  0
  3  4  2  0
  4  5  1  0
  5  6  1  0
  6  7  1  0
  6  8  2  0
  5  9  2  0
  9  2  1  0
  1 10  1  0
  1 11  1  0
  1 12  1  0
M  CHG  2   6   1   7  -1
M  END
$$$$
