
     RDKit          3D

 34 38  0  0  0  0  0  0  0  0999 V2000
   -7.0126    0.1995    1.0022 N   0  0  0  0  0  0  0  0  0  0  0  0
   -5.5500    0.1787    0.7932 C   0  0  0  0  0  0  0  0  0  0  0  0
   -4.6840    1.0679    1.3727 N   0  0  0  0  0  4  0  0  0  0  0  0
   -5.1046    1.9771    2.1522 O   0  0  0  0  0  1  0  0  0  0  0  0
   -3.3757    1.0567    1.1855 N   0  0  0  0  0  0  0  0  0  0  0  0
   -2.8391    0.1402    0.4057 C   0  0  0  0  0  0  0  0  0  0  0  0
   -1.4276    0.1202    0.2040 N   0  0  0  0  0  0  0  0  0  0  0  0
   -0.6733    1.2771    0.2495 C   0  0  0  0  0  0  0  0  0  0  0  0
   -1.0589    2.5418    0.4319 N   0  0  0  0  0  0  0  0  0  0  0  0
    0.1025    3.2957    0.3997 O   0  0  0  0  0  0  0  0  0  0  0  0
    1.2142    2.5011    0.1739 N   0  0  0  0  0  0  0  0  0  0  0  0
    0.7481    1.2574    0.0425 C   0  0  0  0  0  0  0  0  0  0  0  0
    1.4276    0.0797   -0.2040 N   0  0  0  0  0  0  0  0  0  0  0  0
    2.8391    0.0597   -0.4057 C   0  0  0  0  0  0  0  0  0  0  0  0
    3.5350   -1.0032   -0.0564 N   0  0  0  0  0  0  0  0  0  0  0  0
    4.8436   -1.0146   -0.2413 N   0  0  0  0  0  4  0  0  0  0  0  0
    5.4281   -2.0745    0.1412 O   0  0  0  0  0  1  0  0  0  0  0  0
    5.5500    0.0212   -0.7932 C   0  0  0  0  0  0  0  0  0  0  0  0
    7.0126    0.0004   -1.0022 N   0  0  0  0  0  0  0  0  0  0  0  0
    4.7464    1.0785   -1.1293 N   0  0  0  0  0  4  0  0  0  0  0  0
    5.2296    2.1231   -1.6643 O   0  0  0  0  0  1  0  0  0  0  0  0
    3.4386    1.1041   -0.9402 N   0  0  0  0  0  0  0  0  0  0  0  0
    0.6738   -1.0777   -0.2457 C   0  0  0  0  0  0  0  0  0  0  0  0
    1.0497   -2.3334   -0.4974 N   0  0  0  0  0  0  0  0  0  0  0  0
   -0.1025   -3.0958   -0.3997 O   0  0  0  0  0  0  0  0  0  0  0  0
   -1.2049   -2.3097   -0.1084 N   0  0  0  0  0  0  0  0  0  0  0  0
   -0.7486   -1.0570   -0.0463 C   0  0  0  0  0  0  0  0  0  0  0  0
   -3.5979   -0.7579   -0.1889 N   0  0  0  0  0  0  0  0  0  0  0  0
   -4.9061   -0.7319   -0.0022 N   0  0  0  0  0  4  0  0  0  0  0  0
   -5.5532   -1.6260   -0.6291 O   0  0  0  0  0  1  0  0  0  0  0  0
   -7.4122    0.9135    1.6125 H   0  0  0  0  0  0  0  0  0  0  0  0
   -7.5869   -0.5008    0.5310 H   0  0  0  0  0  0  0  0  0  0  0  0
    7.5378   -0.8290   -0.7224 H   0  0  0  0  0  0  0  0  0  0  0  0
    7.4613    0.8161   -1.4212 H   0  0  0  0  0  0  0  0  0  0  0  0
  1  2  1  0
  2  3  2  0
  3  4  1  0
  3  5  1  0
  5  6  2  0
  6  7  1  0
  7  8  1  0
  8  9  2  0
  9 10  1  0
 10 11  1  0
 11 12  2  0
 12 13  1  0
 13 14  1  0
 14 15  2  0
 15 16  1  0
 16 17  1  0
 16 18  2  0
 18 19  1  0
 18 20  1  0
 20 21  1  0
 20 22  2  0
 13 23  1  0
 23 24  2  0
 24 25  1  0
 25 26  1  0
 26 27  2  0
  6 28  1  0
 28 29  2  0
 29 30  1  0
 12  8  1  0
 22 14  1  0
 27 23  1  0
 27  7  1  0
 29  2  1  0
  1 31  1  0
  1 32  1  0
 19 33  1  0
 19 34  1  0
M  CHG  8   3   1   4  -1  16   1  17  -1  20   1  21  -1  29   1  30  -1
M  END
$$$$
