
     RDKit          3D

 24 27  0  0  0  0  0  0  0  0999 V2000
    4.7515   -0.3483   -0.4565 N   0  0  0  0  0  0  0  0  0  0  0  0
    3.2804   -0.2405   -0.3611 C   0  0  0  0  0  0  0  0  0  0  0  0
    2.4372   -1.3187   -0.3269 N   0  0  0  0  0  4  0  0  0  0  0  0
    2.8913   -2.5040   -0.3679 O   0  0  0  0  0  1  0  0  0  0  0  0
    1.1222   -1.2272   -0.2456 N   0  0  0  0  0  0  0  0  0  0  0  0
    0.5525   -0.0405   -0.1843 C   0  0  0  0  0  0  0  0  0  0  0  0
   -0.8667    0.0635   -0.0922 N   0  0  0  0  0  0  0  0  0  0  0  0
   -1.7035   -0.9610   -0.5225 C   0  0  0  0  0  0  0  0  0  0  0  0
   -1.4305   -2.1332   -1.1020 N   0  0  0  0  0  0  0  0  0  0  0  0
   -2.6642   -2.7390   -1.3228 O   0  0  0  0  0  0  0  0  0  0  0  0
   -3.7197   -1.9283   -0.9071 N   0  0  0  0  0  0  0  0  0  0  0  0
   -3.1301   -0.8415   -0.4247 C   0  0  0  0  0  0  0  0  0  0  0  0
   -3.7064    0.2717    0.0919 N   0  0  0  0  0  0  0  0  0  0  0  0
   -2.9130    1.2845    0.5197 C   0  0  0  0  0  0  0  0  0  0  0  0
   -3.2716    2.4408    1.0635 N   0  0  0  0  0  0  0  0  0  0  0  0
   -2.0650    3.0857    1.3326 O   0  0  0  0  0  0  0  0  0  0  0  0
   -0.9711    2.3092    0.9609 N   0  0  0  0  0  0  0  0  0  0  0  0
   -1.4835    1.1946    0.4323 C   0  0  0  0  0  0  0  0  0  0  0  0
    1.2916    1.0503   -0.2078 N   0  0  0  0  0  0  0  0  0  0  0  0
    2.6054    0.9491   -0.2969 N   0  0  0  0  0  4  0  0  0  0  0  0
    3.2282    2.0554   -0.3258 O   0  0  0  0  0  1  0  0  0  0  0  0
    5.1741   -1.2765   -0.4997 H   0  0  0  0  0  0  0  0  0  0  0  0
    5.3064    0.5082   -0.4768 H   0  0  0  0  0  0  0  0  0  0  0  0
   -4.7152    0.3456    0.1573 H   0  0  0  0  0  0  0  0  0  0  0  0
  1  2  1  0
  2  3  2  0
  3  4  1  0
  3  5  1  0
  5  6  2  0
  6  7  1  0
  7  8  1  0
  8  9  2  0
  9 10  1  0
 10 11  1  0
 11 12  2  0
 12 13  1  0
 13 14  1  0
 14 15  2  0
 15 16  1  0
 16 17  1  0
 17 18  2  0
  6 19  1  0
 19 20  2  0
 20 21  1  0
 12  8  1  0
 18 14  1  0
 18  7  1  0
 20  2  1  0
  1 22  1  0
  1 23  1  0
 13 24  1  0
M  CHG  4   3   1   4  -1  20   1  21  -1
M  END
$$$$
