
     RDKit          3D

 19 20  0  0  0  0  0  0  0  0999 V2000
   -2.5688   -1.8061    1.7565 O   0  0  0  0  0  1  0  0  0  0  0  0
   -1.9946   -1.5006    0.7045 N   0  0  0  0  0  4  0  0  0  0  0  0
   -1.4402   -2.2765   -0.0814 O   0  0  0  0  0  0  0  0  0  0  0  0
   -2.0507   -0.1308    0.3328 C   0  0  0  0  0  0  0  0  0  0  0  0
   -3.1942    0.6893    0.3277 C   0  0  0  0  0  0  0  0  0  0  0  0
   -2.9314    1.9225   -0.1222 N   0  0  0  0  0  0  0  0  0  0  0  0
   -1.6103    1.8820   -0.3915 N   0  0  0  0  0  0  0  0  0  0  0  0
   -1.0304    0.6811   -0.1007 C   0  0  0  0  0  0  0  0  0  0  0  0
    0.4715    0.4082   -0.2362 C   0  0  0  0  0  0  0  0  0  0  0  0
    1.3068    1.3397   -0.7236 N   0  0  0  0  0  0  0  0  0  0  0  0
    2.4909    0.6958   -0.6639 N   0  0  0  0  0  0  0  0  0  0  0  0
    2.3250   -0.5394   -0.1375 C   0  0  0  0  0  0  0  0  0  0  0  0
    3.4290   -1.4130    0.0490 N   0  0  0  0  0  4  0  0  0  0  0  0
    3.2189   -2.5104    0.5737 O   0  0  0  0  0  1  0  0  0  0  0  0
    4.5275   -0.9819   -0.3325 O   0  0  0  0  0  0  0  0  0  0  0  0
    1.0648   -0.7591    0.1564 N   0  0  0  0  0  0  0  0  0  0  0  0
   -4.2075    0.4387    0.6181 H   0  0  0  0  0  0  0  0  0  0  0  0
   -1.1513    2.7159   -0.7469 H   0  0  0  0  0  0  0  0  0  0  0  0
    3.3449    1.1449   -0.9823 H   0  0  0  0  0  0  0  0  0  0  0  0
  1  2  1  0
  2  3  2  0
  2  4  1  0
  4  5  1  0
  5  6  2  0
  6  7  1  0
  7  8  1  0
  8  9  1  0
  9 10  2  0
 10 11  1  0
 11 12  1  0
 12 13  1  0
 13 14  1  0
 13 15  2  0
 12 16  2  0
  8  4  2  0
 16  9  1  0
  5 17  1  0
  7 18  1  0
 11 19  1  0
M  CHG  4   1  -1   2   1  13   1  14  -1
M  END
$$$$
