
     RDKit          3D

 19 20  0  0  0  0  0  0  0  0999 V2000
    4.7960    0.1913   -1.4829 O   0  0  0  0  0  1  0  0  0  0  0  0
    4.4196   -0.0490   -0.3286 N   0  0  0  0  0  4  0  0  0  0  0  0
    4.9307    0.4624    0.6753 O   0  0  0  0  0  0  0  0  0  0  0  0
    3.4237   -0.9148   -0.1580 N   0  0  0  0  0  0  0  0  0  0  0  0
    2.2702   -0.3497   -0.1818 C   0  0  0  0  0  0  0  0  0  0  0  0
    1.9932    0.9894   -0.3579 N   0  0  0  0  0  0  0  0  0  0  0  0
    0.7336    1.0806   -0.3076 N   0  0  0  0  0  0  0  0  0  0  0  0
    0.2560   -0.1872   -0.0962 C   0  0  0  0  0  0  0  0  0  0  0  0
   -1.1456   -0.4188   -0.0277 C   0  0  0  0  0  0  0  0  0  0  0  0
   -1.6753   -1.6801   -0.1592 N   0  0  0  0  0  0  0  0  0  0  0  0
   -3.0178   -1.7162   -0.1586 N   0  0  0  0  0  0  0  0  0  0  0  0
   -3.3695   -0.4430    0.0313 C   0  0  0  0  0  0  0  0  0  0  0  0
   -2.2500    0.4007    0.1493 C   0  0  0  0  0  0  0  0  0  0  0  0
   -2.2904    1.8013    0.4204 N   0  0  0  0  0  4  0  0  0  0  0  0
   -3.2669    2.4209   -0.0144 O   0  0  0  0  0  1  0  0  0  0  0  0
   -1.3666    2.2684    1.0939 O   0  0  0  0  0  0  0  0  0  0  0  0
    1.1474   -1.1154   -0.0267 N   0  0  0  0  0  0  0  0  0  0  0  0
   -1.1668   -2.5532   -0.2810 H   0  0  0  0  0  0  0  0  0  0  0  0
   -4.4215   -0.1879    0.0913 H   0  0  0  0  0  0  0  0  0  0  0  0
  1  2  1  0
  2  3  2  0
  2  4  1  0
  4  5  2  3
  5  6  1  0
  6  7  2  0
  7  8  1  0
  8  9  1  0
  9 10  1  0
 10 11  1  0
 11 12  2  0
 12 13  1  0
 13 14  1  0
 14 15  1  0
 14 16  2  0
  8 17  2  0
 13  9  2  0
 17  5  1  0
 10 18  1  0
 12 19  1  0
M  CHG  4   1  -1   2   1  14   1  15  -1
M  END
$$$$
