
     RDKit          3D

 24 27  0  0  0  0  0  0  0  0999 V2000
   -5.6116   -1.2459   -0.3520 O   0  0  0  0  0  0  0  0  0  0  0  0
   -5.0895   -0.2547    0.4484 N   0  0  0  0  0  0  0  0  0  0  0  0
   -5.9206    0.4495    1.2115 N   0  0  0  0  0  0  0  0  0  0  0  0
   -5.1349    1.3078    1.8506 N   0  0  0  0  0  0  0  0  0  0  0  0
   -3.8143    1.1378    1.4850 N   0  0  0  0  0  0  0  0  0  0  0  0
   -3.8038    0.1535    0.6046 C   0  0  0  0  0  0  0  0  0  0  0  0
   -2.6811   -0.3950   -0.0668 C   0  0  0  0  0  0  0  0  0  0  0  0
   -1.4401    0.0163    0.0994 N   0  0  0  0  0  0  0  0  0  0  0  0
   -0.7239   -0.8001   -0.7454 C   0  0  0  0  0  0  0  0  0  0  0  0
    0.7379   -0.6747   -0.8701 C   0  0  0  0  0  0  0  0  0  0  0  0
    1.5008   -1.4329   -1.6703 N   0  0  0  0  0  0  0  0  0  0  0  0
    2.7866   -0.9472   -1.4451 O   0  0  0  0  0  0  0  0  0  0  0  0
    2.6843    0.0656   -0.5246 C   0  0  0  0  0  0  0  0  0  0  0  0
    3.7947    0.8059   -0.0438 C   0  0  0  0  0  0  0  0  0  0  0  0
    3.7863    1.7906    0.8362 N   0  0  0  0  0  0  0  0  0  0  0  0
    5.1014    2.1868    0.9769 N   0  0  0  0  0  0  0  0  0  0  0  0
    5.9023    1.4644    0.2027 N   0  0  0  0  0  0  0  0  0  0  0  0
    5.0860    0.6188   -0.4197 N   0  0  0  0  0  0  0  0  0  0  0  0
    5.6262   -0.2816   -1.3105 O   0  0  0  0  0  0  0  0  0  0  0  0
    1.4375    0.2634   -0.1462 N   0  0  0  0  0  0  0  0  0  0  0  0
   -1.4710   -1.6879   -1.4168 N   0  0  0  0  0  0  0  0  0  0  0  0
   -2.7640   -1.4236   -0.9716 O   0  0  0  0  0  0  0  0  0  0  0  0
   -6.5406   -1.1201   -0.0893 H   0  0  0  0  0  0  0  0  0  0  0  0
    6.5513    0.0033   -1.2059 H   0  0  0  0  0  0  0  0  0  0  0  0
  1  2  1  0
  2  3  1  0
  3  4  2  0
  4  5  1  0
  5  6  2  0
  6  7  1  0
  7  8  2  0
  8  9  1  0
  9 10  1  0
 10 11  2  0
 11 12  1  0
 12 13  1  0
 13 14  1  0
 14 15  2  0
 15 16  1  0
 16 17  2  0
 17 18  1  0
 18 19  1  0
 13 20  2  0
  9 21  2  0
 21 22  1  0
  6  2  1  0
 18 14  1  0
 20 10  1  0
 22  7  1  0
  1 23  1  0
 19 24  1  0
M  END
$$$$
