
     RDKit          3D

 15 15  0  0  0  0  0  0  0  0999 V2000
   -0.5875   -1.6922    0.3051 N   0  0  0  0  0  0  0  0  0  0  0  0
   -0.1971   -0.4200    0.0901 C   0  0  0  0  0  0  0  0  0  0  0  0
   -0.9451    0.7889    0.1986 C   0  0  0  0  0  0  0  0  0  0  0  0
   -2.3384    0.9722    0.5730 N   0  0  0  0  0  4  0  0  0  0  0  0
   -2.9799   -0.0575    0.8383 O   0  0  0  0  0  1  0  0  0  0  0  0
   -2.7960    2.1237    0.6050 O   0  0  0  0  0  0  0  0  0  0  0  0
   -0.2048    1.8794   -0.0992 N   0  0  0  0  0  0  0  0  0  0  0  0
    1.0051    1.3632   -0.3946 N   0  0  0  0  0  0  0  0  0  0  0  0
    1.0475    0.0078   -0.2936 C   0  0  0  0  0  0  0  0  0  0  0  0
    2.2579   -0.6672   -0.5759 N   0  0  0  0  0  4  0  0  0  0  0  0
    2.2597   -1.8984   -0.4738 O   0  0  0  0  0  1  0  0  0  0  0  0
    3.2162    0.0441   -0.9032 O   0  0  0  0  0  0  0  0  0  0  0  0
    0.0372   -2.4936    0.1973 H   0  0  0  0  0  0  0  0  0  0  0  0
   -1.5370   -1.9406    0.5915 H   0  0  0  0  0  0  0  0  0  0  0  0
    1.7623    1.9901   -0.6585 H   0  0  0  0  0  0  0  0  0  0  0  0
  1  2  1  0
  2  3  1  0
  3  4  1  0
  4  5  1  0
  4  6  2  0
  3  7  2  0
  7  8  1  0
  8  9  1  0
  9 10  1  0
 10 11  1  0
 10 12  2  0
  9  2  2  0
  1 13  1  0
  1 14  1  0
  8 15  1  0
M  CHG  4   4   1   5  -1  10   1  11  -1
M  END
$$$$
