
     RDKit          3D

 36 36  0  0  0  0  0  0  0  0999 V2000
   -4.2780    1.0794   -1.9891 O   0  0  0  0  0  1  0  0  0  0  0  0
   -4.4736    0.1691   -1.1830 N   0  0  0  0  0  4  0  0  0  0  0  0
   -5.4425   -0.5725   -1.0435 O   0  0  0  0  0  0  0  0  0  0  0  0
   -3.4304   -0.1148   -0.2659 O   0  0  0  0  0  0  0  0  0  0  0  0
   -2.3032    0.7389   -0.4393 C   0  0  0  0  0  0  0  0  0  0  0  0
   -1.2570    0.3587    0.6134 C   0  0  2  0  0  0  0  0  0  0  0  0
    0.1427    1.0648    0.5374 C   0  0  2  0  0  0  0  0  0  0  0  0
    0.2473    2.4146   -0.1657 C   0  0  0  0  0  0  0  0  0  0  0  0
    1.6037    2.8537   -0.1865 O   0  0  0  0  0  0  0  0  0  0  0  0
    1.9829    3.5992    0.9581 N   0  0  0  0  0  4  0  0  0  0  0  0
    1.1458    3.7242    1.8528 O   0  0  0  0  0  1  0  0  0  0  0  0
    3.1417    4.0015    0.9005 O   0  0  0  0  0  0  0  0  0  0  0  0
    0.6550   -0.1951   -0.2361 C   0  0  1  0  0  0  0  0  0  0  0  0
    2.0810   -0.6576    0.0540 C   0  0  0  0  0  0  0  0  0  0  0  0
    2.9679    0.2419   -0.6025 O   0  0  0  0  0  0  0  0  0  0  0  0
    4.3296   -0.1120   -0.4308 N   0  0  0  0  0  4  0  0  0  0  0  0
    4.5702   -1.0867    0.2823 O   0  0  0  0  0  1  0  0  0  0  0  0
    5.0935    0.6299   -1.0433 O   0  0  0  0  0  0  0  0  0  0  0  0
   -0.4793   -0.9988    0.4774 C   0  0  2  0  0  0  0  0  0  0  0  0
   -1.1060   -2.1504   -0.3011 C   0  0  0  0  0  0  0  0  0  0  0  0
   -0.1463   -3.1890   -0.4895 O   0  0  0  0  0  0  0  0  0  0  0  0
   -0.1274   -4.1504    0.5524 N   0  0  0  0  0  4  0  0  0  0  0  0
   -0.8453   -3.9386    1.5296 O   0  0  0  0  0  1  0  0  0  0  0  0
    0.6573   -5.0694    0.3323 O   0  0  0  0  0  0  0  0  0  0  0  0
   -2.6026    1.7823   -0.2815 H   0  0  0  0  0  0  0  0  0  0  0  0
   -1.8904    0.6223   -1.4485 H   0  0  0  0  0  0  0  0  0  0  0  0
   -1.7125    0.4731    1.6078 H   0  0  0  0  0  0  0  0  0  0  0  0
    0.5797    1.1303    1.5459 H   0  0  0  0  0  0  0  0  0  0  0  0
   -0.4294    3.1578    0.2733 H   0  0  0  0  0  0  0  0  0  0  0  0
   -0.0604    2.3203   -1.2132 H   0  0  0  0  0  0  0  0  0  0  0  0
    0.4898   -0.1236   -1.3216 H   0  0  0  0  0  0  0  0  0  0  0  0
    2.2172   -1.6702   -0.3441 H   0  0  0  0  0  0  0  0  0  0  0  0
    2.2659   -0.6585    1.1352 H   0  0  0  0  0  0  0  0  0  0  0  0
   -0.1657   -1.3499    1.4729 H   0  0  0  0  0  0  0  0  0  0  0  0
   -1.3894   -1.8178   -1.3058 H   0  0  0  0  0  0  0  0  0  0  0  0
   -2.0320   -2.5066    0.1658 H   0  0  0  0  0  0  0  0  0  0  0  0
  1  2  1  0
  2  3  2  0
  2  4  1  0
  4  5  1  0
  5  6  1  0
  6  7  1  0
  7  8  1  0
  8  9  1  0
  9 10  1  0
 10 11  1  0
 10 12  2  0
  7 13  1  0
 13 14  1  0
 14 15  1  0
 15 16  1  0
 16 17  1  0
 16 18  2  0
 13 19  1  0
 19 20  1  0
 20 21  1  0
 21 22  1  0
 22 23  1  0
 22 24  2  0
 19  6  1  0
  5 25  1  0
  5 26  1  0
  6 27  1  1
  7 28  1  1
  8 29  1  0
  8 30  1  0
 13 31  1  6
 14 32  1  0
 14 33  1  0
 19 34  1  1
 20 35  1  0
 20 36  1  0
M  CHG  8   1  -1   2   1  10   1  11  -1  16   1  17  -1  22   1  23  -1
M  END
$$$$
