
     RDKit          3D

 23 23  0  0  0  0  0  0  0  0999 V2000
   -4.2653   -0.6660   -1.2339 C   0  0  0  0  0  0  0  0  0  0  0  0
   -3.4866   -1.7808   -0.5612 C   0  0  0  0  0  0  0  0  0  0  0  0
   -2.0782   -1.5349   -0.6675 O   0  0  0  0  0  0  0  0  0  0  0  0
   -1.5281   -0.7503    0.3062 C   0  0  0  0  0  0  0  0  0  0  0  0
   -2.1604   -0.2585    1.2358 O   0  0  0  0  0  0  0  0  0  0  0  0
   -0.0903   -0.5423    0.1390 C   0  0  0  0  0  0  0  0  0  0  0  0
    0.7588    0.2292    0.9781 C   0  0  0  0  0  0  0  0  0  0  0  0
    2.0047    0.1212    0.4107 C   0  0  0  0  0  0  0  0  0  0  0  0
    3.3459    0.6537    0.7440 C   0  0  0  0  0  0  0  0  0  0  0  0
    3.2762    2.0566    0.5395 O   0  0  0  0  0  0  0  0  0  0  0  0
    4.4999    2.6932    0.8341 N   0  0  0  0  0  4  0  0  0  0  0  0
    4.4587    3.9089    0.6603 O   0  0  0  0  0  1  0  0  0  0  0  0
    5.4258    1.9811    1.2250 O   0  0  0  0  0  0  0  0  0  0  0  0
    1.9206   -0.6638   -0.6949 O   0  0  0  0  0  0  0  0  0  0  0  0
    0.6165   -1.0827   -0.8689 N   0  0  0  0  0  0  0  0  0  0  0  0
   -4.0839    0.2938   -0.7401 H   0  0  0  0  0  0  0  0  0  0  0  0
   -3.9506   -0.5522   -2.2765 H   0  0  0  0  0  0  0  0  0  0  0  0
   -5.3388   -0.8736   -1.2099 H   0  0  0  0  0  0  0  0  0  0  0  0
   -3.7916   -1.9099    0.4836 H   0  0  0  0  0  0  0  0  0  0  0  0
   -3.6855   -2.7283   -1.0726 H   0  0  0  0  0  0  0  0  0  0  0  0
    0.4808    0.7823    1.8639 H   0  0  0  0  0  0  0  0  0  0  0  0
    3.5695    0.4216    1.7925 H   0  0  0  0  0  0  0  0  0  0  0  0
    4.1018    0.2015    0.0901 H   0  0  0  0  0  0  0  0  0  0  0  0
  1  2  1  0
  2  3  1  0
  3  4  1  0
  4  5  2  0
  4  6  1  0
  6  7  1  0
  7  8  2  0
  8  9  1  0
  9 10  1  0
 10 11  1  0
 11 12  1  0
 11 13  2  0
  8 14  1  0
 14 15  1  0
 15  6  2  0
  1 16  1  0
  1 17  1  0
  1 18  1  0
  2 19  1  0
  2 20  1  0
  7 21  1  0
  9 22  1  0
  9 23  1  0
M  CHG  2  11   1  12  -1
M  END
$$$$
