
     RDKit          3D

 20 20  0  0  0  0  0  0  0  0999 V2000
    4.8561   -0.2764   -1.6374 O   0  0  0  0  0  1  0  0  0  0  0  0
    4.1797    0.5265   -0.9989 N   0  0  0  0  0  4  0  0  0  0  0  0
    4.4273    1.6887   -0.6761 O   0  0  0  0  0  0  0  0  0  0  0  0
    2.9314   -0.0013   -0.6103 O   0  0  0  0  0  0  0  0  0  0  0  0
    2.1632    0.9371    0.1363 C   0  0  0  0  0  0  0  0  0  0  0  0
    0.8465    0.3439    0.5169 C   0  0  0  0  0  0  0  0  0  0  0  0
   -0.1152   -0.2703   -0.3211 C   0  0  0  0  0  0  0  0  0  0  0  0
   -1.1336   -0.6270    0.5312 C   0  0  0  0  0  0  0  0  0  0  0  0
   -2.4392   -1.3103    0.3801 C   0  0  0  0  0  0  0  0  0  0  0  0
   -2.8867   -1.1644   -0.9619 O   0  0  0  0  0  0  0  0  0  0  0  0
   -3.6761   -0.0117   -1.1705 N   0  0  0  0  0  4  0  0  0  0  0  0
   -3.8771    0.7259   -0.2066 O   0  0  0  0  0  1  0  0  0  0  0  0
   -4.0538    0.0948   -2.3353 O   0  0  0  0  0  0  0  0  0  0  0  0
   -0.8023   -0.2562    1.7969 O   0  0  0  0  0  0  0  0  0  0  0  0
    0.4378    0.3527    1.7918 N   0  0  0  0  0  0  0  0  0  0  0  0
    2.7069    1.2261    1.0455 H   0  0  0  0  0  0  0  0  0  0  0  0
    1.9652    1.8318   -0.4684 H   0  0  0  0  0  0  0  0  0  0  0  0
   -0.0670   -0.4301   -1.3887 H   0  0  0  0  0  0  0  0  0  0  0  0
   -3.1764   -0.9967    1.1285 H   0  0  0  0  0  0  0  0  0  0  0  0
   -2.2867   -2.3833    0.5445 H   0  0  0  0  0  0  0  0  0  0  0  0
  1  2  1  0
  2  3  2  0
  2  4  1  0
  4  5  1  0
  5  6  1  0
  6  7  1  0
  7  8  2  0
  8  9  1  0
  9 10  1  0
 10 11  1  0
 11 12  1  0
 11 13  2  0
  8 14  1  0
 14 15  1  0
 15  6  2  0
  5 16  1  0
  5 17  1  0
  7 18  1  0
  9 19  1  0
  9 20  1  0
M  CHG  4   1  -1   2   1  11   1  12  -1
M  END
$$$$
