
     RDKit          3D

 12 12  0  0  0  0  0  0  0  0999 V2000
   -1.2098   -1.0707    0.2192 N   0  0  0  0  0  0  0  0  0  0  0  0
   -0.7305    0.1880    0.4194 C   0  0  0  0  0  0  0  0  0  0  0  0
   -1.3683    1.1379    1.0932 N   0  0  0  0  0  0  0  0  0  0  0  0
   -0.5398    2.2521    1.0132 O   0  0  0  0  0  0  0  0  0  0  0  0
    0.6207    1.9665    0.3044 N   0  0  0  0  0  0  0  0  0  0  0  0
    0.5143    0.6757   -0.0384 C   0  0  0  0  0  0  0  0  0  0  0  0
    1.5672   -0.0386   -0.7444 C   0  0  0  0  0  0  0  0  0  0  0  0
    2.5037    0.4995   -1.3205 O   0  0  0  0  0  0  0  0  0  0  0  0
    1.4475   -1.4003   -0.7284 O   0  0  0  0  0  0  0  0  0  0  0  0
   -1.4069   -1.2957   -0.7593 H   0  0  0  0  0  0  0  0  0  0  0  0
   -2.0976   -1.2095    0.7103 H   0  0  0  0  0  0  0  0  0  0  0  0
    0.6996   -1.7048   -0.1686 H   0  0  0  0  0  0  0  0  0  0  0  0
  1  2  1  0
  2  3  2  0
  3  4  1  0
  4  5  1  0
  5  6  2  0
  6  7  1  0
  7  8  2  0
  7  9  1  0
  6  2  1  0
  1 10  1  0
  1 11  1  0
  9 12  1  0
M  END
$$$$
