
     RDKit          3D

 24 25  0  0  0  0  0  0  0  0999 V2000
    4.1887    0.5500    0.5092 N   0  0  0  0  0  0  0  0  0  0  0  0
    2.8790    0.6705    0.2393 C   0  0  0  0  0  0  0  0  0  0  0  0
    2.3395    1.8390   -0.0803 N   0  0  0  0  0  0  0  0  0  0  0  0
    1.0466    1.5606   -0.2879 N   0  0  0  0  0  0  0  0  0  0  0  0
    0.7012    0.2388   -0.1038 C   0  0  0  0  0  0  0  0  0  0  0  0
   -0.6552   -0.2401   -0.2694 C   0  0  0  0  0  0  0  0  0  0  0  0
   -0.9466   -1.5635   -0.5225 N   0  0  0  0  0  0  0  0  0  0  0  0
   -2.2514   -1.8416   -0.6334 N   0  0  0  0  0  0  0  0  0  0  0  0
   -2.8514   -0.6714   -0.4630 C   0  0  0  0  0  0  0  0  0  0  0  0
   -4.1873   -0.5500   -0.5204 N   0  0  0  0  0  0  0  0  0  0  0  0
   -1.9131    0.3657   -0.2340 C   0  0  0  0  0  0  0  0  0  0  0  0
   -2.2349    1.7404   -0.0066 N   0  0  0  0  0  4  0  0  0  0  0  0
   -1.3958    2.5823   -0.3560 O   0  0  0  0  0  1  0  0  0  0  0  0
   -3.3241    1.9909    0.5255 O   0  0  0  0  0  0  0  0  0  0  0  0
    1.9122   -0.3656    0.2407 C   0  0  0  0  0  0  0  0  0  0  0  0
    2.1679   -1.7385    0.5493 N   0  0  0  0  0  4  0  0  0  0  0  0
    3.0949   -1.9841    1.3320 O   0  0  0  0  0  1  0  0  0  0  0  0
    1.4382   -2.5836    0.0124 O   0  0  0  0  0  0  0  0  0  0  0  0
    4.6941    1.4152    0.6780 H   0  0  0  0  0  0  0  0  0  0  0  0
    4.5264   -0.2244    1.0783 H   0  0  0  0  0  0  0  0  0  0  0  0
    0.4297    2.3309   -0.5433 H   0  0  0  0  0  0  0  0  0  0  0  0
   -0.2868   -2.3351   -0.6147 H   0  0  0  0  0  0  0  0  0  0  0  0
   -4.7193   -1.4144   -0.4733 H   0  0  0  0  0  0  0  0  0  0  0  0
   -4.6525    0.2281   -0.0560 H   0  0  0  0  0  0  0  0  0  0  0  0
  1  2  1  0
  2  3  2  0
  3  4  1  0
  4  5  1  0
  5  6  1  0
  6  7  1  0
  7  8  1  0
  8  9  2  0
  9 10  1  0
  9 11  1  0
 11 12  1  0
 12 13  1  0
 12 14  2  0
  5 15  2  0
 15 16  1  0
 16 17  1  0
 16 18  2  0
 11  6  2  0
 15  2  1  0
  1 19  1  0
  1 20  1  0
  4 21  1  0
  7 22  1  0
 10 23  1  0
 10 24  1  0
M  CHG  4  12   1  13  -1  16   1  17  -1
M  END
$$$$
