
     RDKit          3D

 19 20  0  0  0  0  0  0  0  0999 V2000
    3.1966   -0.8988    1.2967 O   0  0  0  0  0  1  0  0  0  0  0  0
    3.0483    0.2524    0.8519 N   0  0  0  0  0  4  0  0  0  0  0  0
    3.9323    1.1130    0.9303 O   0  0  0  0  0  0  0  0  0  0  0  0
    1.8912    0.6071    0.2634 N   0  0  0  0  0  0  0  0  0  0  0  0
    1.2704   -0.3092   -0.3877 C   0  0  0  0  0  0  0  0  0  0  0  0
    1.4989   -1.6385   -0.6138 N   0  0  0  0  0  0  0  0  0  0  0  0
    0.4762   -2.2750   -1.2456 N   0  0  0  0  0  0  0  0  0  0  0  0
   -0.3876   -1.3914   -1.5396 N   0  0  0  0  0  0  0  0  0  0  0  0
    0.0858   -0.1899   -1.0706 N   0  0  0  0  0  0  0  0  0  0  0  0
   -0.8190    0.9399   -0.9956 C   0  0  0  0  0  0  0  0  0  0  0  0
   -1.7573    0.9362    0.1545 C   0  0  0  0  0  0  0  0  0  0  0  0
   -2.1940    1.9587    0.8597 N   0  0  0  0  0  0  0  0  0  0  0  0
   -3.0534    1.4355    1.7955 N   0  0  0  0  0  0  0  0  0  0  0  0
   -3.1493    0.1194    1.6694 N   0  0  0  0  0  0  0  0  0  0  0  0
   -2.3435   -0.1936    0.6485 N   0  0  0  0  0  0  0  0  0  0  0  0
    2.1932   -2.1594   -0.0840 H   0  0  0  0  0  0  0  0  0  0  0  0
   -0.2370    1.8696   -0.9744 H   0  0  0  0  0  0  0  0  0  0  0  0
   -1.4094    0.9843   -1.9197 H   0  0  0  0  0  0  0  0  0  0  0  0
   -2.2422   -1.1601    0.3612 H   0  0  0  0  0  0  0  0  0  0  0  0
  1  2  1  0
  2  3  2  0
  2  4  1  0
  4  5  2  3
  5  6  1  0
  6  7  1  0
  7  8  2  0
  8  9  1  0
  9 10  1  0
 10 11  1  0
 11 12  2  0
 12 13  1  0
 13 14  2  0
 14 15  1  0
  9  5  1  0
 15 11  1  0
  6 16  1  0
 10 17  1  0
 10 18  1  0
 15 19  1  0
M  CHG  2   1  -1   2   1
M  END
$$$$
