
     RDKit          3D

 21 22  0  0  0  0  0  0  0  0999 V2000
   -2.9822    0.4974   -1.5725 N   0  0  0  0  0  0  0  0  0  0  0  0
   -1.8856    0.2823   -0.8312 C   0  0  0  0  0  0  0  0  0  0  0  0
   -0.6828    0.1685   -1.3851 N   0  0  0  0  0  0  0  0  0  0  0  0
    0.1659   -0.0301   -0.3405 N   0  0  0  0  0  0  0  0  0  0  0  0
    1.5675   -0.2000   -0.4031 C   0  0  0  0  0  0  0  0  0  0  0  0
    2.1320   -0.2114   -1.6829 N   0  0  0  0  0  0  0  0  0  0  0  0
    2.1575   -0.3313    0.8112 C   0  0  0  0  0  0  0  0  0  0  0  0
    3.6144   -0.4835    0.8261 N   0  0  0  0  0  4  0  0  0  0  0  0
    4.0919   -1.1738    1.7369 O   0  0  0  0  0  1  0  0  0  0  0  0
    4.2833    0.1070   -0.0383 O   0  0  0  0  0  0  0  0  0  0  0  0
    1.4492   -0.3368    2.0027 N   0  0  0  0  0  0  0  0  0  0  0  0
    0.1982   -0.1965    2.0315 N   0  0  0  0  0  0  0  0  0  0  0  0
   -0.4998   -0.0251    0.8749 C   0  0  0  0  0  0  0  0  0  0  0  0
   -1.8331    0.1648    0.5736 C   0  0  0  0  0  0  0  0  0  0  0  0
   -2.9082    0.2270    1.5087 N   0  0  0  0  0  4  0  0  0  0  0  0
   -4.0563    0.1358    1.0525 O   0  0  0  0  0  1  0  0  0  0  0  0
   -2.6198    0.3627    2.7031 O   0  0  0  0  0  0  0  0  0  0  0  0
   -2.9202    0.3539   -2.5761 H   0  0  0  0  0  0  0  0  0  0  0  0
   -3.9162    0.3435   -1.1933 H   0  0  0  0  0  0  0  0  0  0  0  0
    3.1073    0.1029   -1.7159 H   0  0  0  0  0  0  0  0  0  0  0  0
    1.5369    0.2428   -2.3823 H   0  0  0  0  0  0  0  0  0  0  0  0
  1  2  1  0
  2  3  2  0
  3  4  1  0
  4  5  1  0
  5  6  1  0
  5  7  2  0
  7  8  1  0
  8  9  1  0
  8 10  2  0
  7 11  1  0
 11 12  2  0
 12 13  1  0
 13 14  2  0
 14 15  1  0
 15 16  1  0
 15 17  2  0
 13  4  1  0
 14  2  1  0
  1 18  1  0
  1 19  1  0
  6 20  1  0
  6 21  1  0
M  CHG  4   8   1   9  -1  15   1  16  -1
M  END
$$$$
