
     RDKit          3D

 24 25  0  0  0  0  0  0  0  0999 V2000
    3.1999    0.1329   -1.1794 N   0  0  0  0  0  0  0  0  0  0  0  0
    3.0922   -1.0589   -0.5560 C   0  0  0  0  0  0  0  0  0  0  0  0
    4.0537   -1.8644   -0.1695 N   0  0  0  0  0  0  0  0  0  0  0  0
    3.4426   -2.9340    0.4449 N   0  0  0  0  0  0  0  0  0  0  0  0
    2.1253   -2.7888    0.4545 N   0  0  0  0  0  0  0  0  0  0  0  0
    1.9023   -1.6224   -0.1722 N   0  0  0  0  0  0  0  0  0  0  0  0
    0.5687   -1.0878   -0.2690 C   0  0  0  0  0  0  0  0  0  0  0  0
    0.2777   -0.1451    0.8866 C   0  0  0  0  0  0  0  0  0  0  0  0
   -1.0539    0.4230    0.7914 N   0  0  0  0  0  0  0  0  0  0  0  0
   -2.0462    0.3603    1.7277 C   0  0  0  0  0  0  0  0  0  0  0  0
   -3.1109    1.0608    1.2069 C   0  0  0  0  0  0  0  0  0  0  0  0
   -2.6581    1.5126   -0.0528 C   0  0  0  0  0  0  0  0  0  0  0  0
   -3.3725    2.3051   -1.0379 N   0  0  0  0  0  4  0  0  0  0  0  0
   -4.5270    2.6421   -0.7334 O   0  0  0  0  0  1  0  0  0  0  0  0
   -2.7999    2.5852   -2.1009 O   0  0  0  0  0  0  0  0  0  0  0  0
   -1.3953    1.1212   -0.3082 N   0  0  0  0  0  0  0  0  0  0  0  0
    2.4816    0.4355   -1.8308 H   0  0  0  0  0  0  0  0  0  0  0  0
    4.1303    0.3361   -1.5413 H   0  0  0  0  0  0  0  0  0  0  0  0
    0.4808   -0.5897   -1.2411 H   0  0  0  0  0  0  0  0  0  0  0  0
   -0.1340   -1.9294   -0.2759 H   0  0  0  0  0  0  0  0  0  0  0  0
    0.3560   -0.6645    1.8492 H   0  0  0  0  0  0  0  0  0  0  0  0
    0.9783    0.6985    0.9094 H   0  0  0  0  0  0  0  0  0  0  0  0
   -1.9165   -0.1581    2.6697 H   0  0  0  0  0  0  0  0  0  0  0  0
   -4.0753    1.2299    1.6660 H   0  0  0  0  0  0  0  0  0  0  0  0
  1  2  1  0
  2  3  2  0
  3  4  1  0
  4  5  2  0
  5  6  1  0
  6  7  1  0
  7  8  1  0
  8  9  1  0
  9 10  1  0
 10 11  2  0
 11 12  1  0
 12 13  1  0
 13 14  1  0
 13 15  2  0
 12 16  2  0
  6  2  1  0
 16  9  1  0
  1 17  1  0
  1 18  1  0
  7 19  1  0
  7 20  1  0
  8 21  1  0
  8 22  1  0
 10 23  1  0
 11 24  1  0
M  CHG  2  13   1  14  -1
M  END
$$$$
