
     RDKit          3D

 28 29  0  0  0  0  0  0  0  0999 V2000
    0.1519    2.0139   -3.8781 N   0  0  0  0  0  2  0  0  0  0  0  0
   -0.6142    2.0865   -3.0352 N   0  0  0  0  0  4  0  0  0  0  0  0
   -1.4588    2.1769   -2.1261 N   0  0  0  0  0  0  0  0  0  0  0  0
   -1.0953    1.5629   -0.9282 C   0  0  0  0  0  0  0  0  0  0  0  0
    0.1798    1.3163   -0.6220 N   0  0  0  0  0  0  0  0  0  0  0  0
    0.1079    0.8011    0.6225 N   0  0  0  0  0  0  0  0  0  0  0  0
    1.3447    0.4290    1.2857 C   0  0  0  0  0  0  0  0  0  0  0  0
    1.6122   -1.0685    1.2886 C   0  0  0  0  0  0  0  0  0  0  0  0
    1.4076   -1.7555    0.0385 N   0  0  0  0  0  0  0  0  0  0  0  0
    0.7097   -2.9051    0.0213 N   0  0  0  0  0  0  0  0  0  0  0  0
    0.8268   -3.3618   -1.2171 N   0  0  0  0  0  0  0  0  0  0  0  0
    1.5741   -2.5062   -1.9898 N   0  0  0  0  0  0  0  0  0  0  0  0
    1.9019   -1.4997   -1.2147 C   0  0  0  0  0  0  0  0  0  0  0  0
    2.5754   -0.3742   -1.5483 N   0  0  0  0  0  0  0  0  0  0  0  0
   -1.1756    0.6677    1.1131 C   0  0  0  0  0  0  0  0  0  0  0  0
   -1.3708    0.1330    2.3518 N   0  0  0  0  0  0  0  0  0  0  0  0
   -2.2783   -0.7280    2.3849 N   0  0  0  0  0  4  0  0  0  0  0  0
   -3.0896   -1.5274    2.4152 N   0  0  0  0  0  2  0  0  0  0  0  0
   -1.9757    1.2085    0.1084 C   0  0  0  0  0  0  0  0  0  0  0  0
   -3.3889    1.3835    0.1393 N   0  0  0  0  0  4  0  0  0  0  0  0
   -3.9940    1.3193   -0.9355 O   0  0  0  0  0  1  0  0  0  0  0  0
   -3.9021    1.5732    1.2487 O   0  0  0  0  0  0  0  0  0  0  0  0
    1.2963    0.8105    2.3123 H   0  0  0  0  0  0  0  0  0  0  0  0
    2.1610    0.9723    0.7959 H   0  0  0  0  0  0  0  0  0  0  0  0
    0.9638   -1.5489    2.0320 H   0  0  0  0  0  0  0  0  0  0  0  0
    2.6457   -1.2650    1.5960 H   0  0  0  0  0  0  0  0  0  0  0  0
    2.8671   -0.3949   -2.5270 H   0  0  0  0  0  0  0  0  0  0  0  0
    2.0173    0.4806   -1.4481 H   0  0  0  0  0  0  0  0  0  0  0  0
  1  2  2  0
  2  3  2  0
  3  4  1  0
  4  5  2  0
  5  6  1  0
  6  7  1  0
  7  8  1  0
  8  9  1  0
  9 10  1  0
 10 11  2  0
 11 12  1  0
 12 13  2  0
 13 14  1  0
  6 15  1  0
 15 16  1  0
 16 17  2  0
 17 18  2  0
 15 19  2  0
 19 20  1  0
 20 21  1  0
 20 22  2  0
 13  9  1  0
 19  4  1  0
  7 23  1  0
  7 24  1  0
  8 25  1  0
  8 26  1  0
 14 27  1  0
 14 28  1  0
M  CHG  6   1  -1   2   1  17   1  18  -1  20   1  21  -1
M  END
$$$$
