
     RDKit          3D

 22 23  0  0  0  0  0  0  0  0999 V2000
   -2.6064    1.5054    1.1966 N   0  0  0  0  0  0  0  0  0  0  0  0
   -3.0030    0.3662    0.5968 C   0  0  0  0  0  0  0  0  0  0  0  0
   -4.2229    0.0086    0.2686 N   0  0  0  0  0  0  0  0  0  0  0  0
   -4.1201   -1.2209   -0.3382 N   0  0  0  0  0  0  0  0  0  0  0  0
   -2.8589   -1.6250   -0.3829 N   0  0  0  0  0  0  0  0  0  0  0  0
   -2.1613   -0.6467    0.2164 N   0  0  0  0  0  0  0  0  0  0  0  0
   -0.7319   -0.7578    0.3479 C   0  0  0  0  0  0  0  0  0  0  0  0
   -0.0462   -0.5223   -0.9830 C   0  0  0  0  0  0  0  0  0  0  0  0
    1.3866   -0.4604   -0.8143 N   0  0  0  0  0  0  0  0  0  0  0  0
    2.1757   -1.5345   -0.9924 N   0  0  0  0  0  0  0  0  0  0  0  0
    3.4043   -1.1105   -0.7111 N   0  0  0  0  0  0  0  0  0  0  0  0
    3.2698    0.2013   -0.3597 C   0  0  0  0  0  0  0  0  0  0  0  0
    4.3893    1.0210    0.0335 N   0  0  0  0  0  4  0  0  0  0  0  0
    4.1573    2.1913    0.3751 O   0  0  0  0  0  1  0  0  0  0  0  0
    5.5112    0.4943    0.0058 O   0  0  0  0  0  0  0  0  0  0  0  0
    2.0025    0.6594   -0.3853 N   0  0  0  0  0  0  0  0  0  0  0  0
   -1.6855    1.9019    1.0443 H   0  0  0  0  0  0  0  0  0  0  0  0
   -3.3230    2.2254    1.2758 H   0  0  0  0  0  0  0  0  0  0  0  0
   -0.5102   -1.7591    0.7366 H   0  0  0  0  0  0  0  0  0  0  0  0
   -0.3987   -0.0416    1.1070 H   0  0  0  0  0  0  0  0  0  0  0  0
   -0.2683   -1.3208   -1.7002 H   0  0  0  0  0  0  0  0  0  0  0  0
   -0.3603    0.4249   -1.4375 H   0  0  0  0  0  0  0  0  0  0  0  0
  1  2  1  0
  2  3  2  0
  3  4  1  0
  4  5  2  0
  5  6  1  0
  6  7  1  0
  7  8  1  0
  8  9  1  0
  9 10  1  0
 10 11  2  0
 11 12  1  0
 12 13  1  0
 13 14  1  0
 13 15  2  0
 12 16  2  0
  6  2  1  0
 16  9  1  0
  1 17  1  0
  1 18  1  0
  7 19  1  0
  7 20  1  0
  8 21  1  0
  8 22  1  0
M  CHG  2  13   1  14  -1
M  END
$$$$
