
     RDKit          3D

 25 26  0  0  0  0  0  0  0  0999 V2000
    4.1806    1.1887    2.3461 O   0  0  0  0  0  1  0  0  0  0  0  0
    3.4390    1.1549    1.3566 N   0  0  0  0  0  4  0  0  0  0  0  0
    3.5133    1.9917    0.4416 O   0  0  0  0  0  0  0  0  0  0  0  0
    2.5224    0.1689    1.3172 N   0  0  0  0  0  0  0  0  0  0  0  0
    2.0928   -0.1888    0.1603 C   0  0  0  0  0  0  0  0  0  0  0  0
    2.3256    0.2267   -1.1206 N   0  0  0  0  0  0  0  0  0  0  0  0
    1.4961   -0.3414   -2.0389 N   0  0  0  0  0  0  0  0  0  0  0  0
    0.7994   -1.2096   -1.4274 N   0  0  0  0  0  0  0  0  0  0  0  0
    1.1689   -1.1693   -0.1056 N   0  0  0  0  0  0  0  0  0  0  0  0
    0.3359   -1.8425    0.8683 C   0  0  0  0  0  0  0  0  0  0  0  0
   -0.6858   -0.9121    1.5173 C   0  0  0  0  0  0  0  0  0  0  0  0
   -1.6221   -0.3443    0.5726 N   0  0  0  0  0  0  0  0  0  0  0  0
   -2.7226   -0.9354    0.0293 C   0  0  0  0  0  0  0  0  0  0  0  0
   -3.3188   -0.0981   -0.7893 N   0  0  0  0  0  0  0  0  0  0  0  0
   -2.5247    1.0235   -0.6994 C   0  0  0  0  0  0  0  0  0  0  0  0
   -2.7859    2.2439   -1.4503 N   0  0  0  0  0  4  0  0  0  0  0  0
   -1.9919    3.1896   -1.3189 O   0  0  0  0  0  1  0  0  0  0  0  0
   -3.7924    2.2560   -2.1762 O   0  0  0  0  0  0  0  0  0  0  0  0
   -1.4822    0.9251    0.1450 N   0  0  0  0  0  0  0  0  0  0  0  0
    2.7615    1.1261   -1.3074 H   0  0  0  0  0  0  0  0  0  0  0  0
    0.9745   -2.2696    1.6506 H   0  0  0  0  0  0  0  0  0  0  0  0
   -0.1756   -2.6897    0.3942 H   0  0  0  0  0  0  0  0  0  0  0  0
   -0.1975   -0.0833    2.0422 H   0  0  0  0  0  0  0  0  0  0  0  0
   -1.2754   -1.4640    2.2583 H   0  0  0  0  0  0  0  0  0  0  0  0
   -3.0351   -1.9471    0.2515 H   0  0  0  0  0  0  0  0  0  0  0  0
  1  2  1  0
  2  3  2  0
  2  4  1  0
  4  5  2  3
  5  6  1  0
  6  7  1  0
  7  8  2  0
  8  9  1  0
  9 10  1  0
 10 11  1  0
 11 12  1  0
 12 13  1  0
 13 14  2  0
 14 15  1  0
 15 16  1  0
 16 17  1  0
 16 18  2  0
 15 19  2  0
  9  5  1  0
 19 12  1  0
  6 20  1  0
 10 21  1  0
 10 22  1  0
 11 23  1  0
 11 24  1  0
 13 25  1  0
M  CHG  4   1  -1   2   1  16   1  17  -1
M  END
$$$$
