
     RDKit          3D

 29 30  0  0  0  0  0  0  0  0999 V2000
    3.6376    3.2740    0.2340 O   0  0  0  0  0  1  0  0  0  0  0  0
    2.8190    3.1892   -0.6975 N   0  0  0  0  0  4  0  0  0  0  0  0
    2.6239    4.1113   -1.4972 O   0  0  0  0  0  0  0  0  0  0  0  0
    2.0971    2.0670   -0.8529 N   0  0  0  0  0  0  0  0  0  0  0  0
    2.7217    0.9618   -0.6572 C   0  0  0  0  0  0  0  0  0  0  0  0
    3.9952    0.6439   -0.2725 N   0  0  0  0  0  0  0  0  0  0  0  0
    4.1734   -0.6807   -0.0131 N   0  0  0  0  0  0  0  0  0  0  0  0
    3.0909   -1.2708   -0.3190 N   0  0  0  0  0  0  0  0  0  0  0  0
    2.2134   -0.3092   -0.7549 N   0  0  0  0  0  0  0  0  0  0  0  0
    0.8155   -0.6616   -0.9023 C   0  0  0  0  0  0  0  0  0  0  0  0
    0.1180   -0.6699    0.4547 C   0  0  0  0  0  0  0  0  0  0  0  0
   -1.2884   -1.0085    0.3518 N   0  0  0  0  0  0  0  0  0  0  0  0
   -1.6155   -2.2695   -0.0145 N   0  0  0  0  0  0  0  0  0  0  0  0
   -2.9291   -2.2888    0.2543 C   0  0  0  0  0  0  0  0  0  0  0  0
   -3.7370   -3.4816    0.0398 N   0  0  0  0  0  4  0  0  0  0  0  0
   -3.1804   -4.4841   -0.4340 O   0  0  0  0  0  1  0  0  0  0  0  0
   -4.9361   -3.4092    0.3500 O   0  0  0  0  0  0  0  0  0  0  0  0
   -3.4420   -1.1241    0.7677 N   0  0  0  0  0  0  0  0  0  0  0  0
   -2.4088   -0.3095    0.7672 C   0  0  0  0  0  0  0  0  0  0  0  0
   -2.4373    0.9705    1.2047 N   0  0  0  0  0  0  0  0  0  0  0  0
   -1.9653    2.0313    0.5089 N   0  0  0  0  0  4  0  0  0  0  0  0
   -2.3631    3.1153    0.9283 O   0  0  0  0  0  1  0  0  0  0  0  0
   -1.2124    1.8186   -0.4412 O   0  0  0  0  0  0  0  0  0  0  0  0
    4.6181    1.3354    0.1343 H   0  0  0  0  0  0  0  0  0  0  0  0
    0.3243    0.0336   -1.5922 H   0  0  0  0  0  0  0  0  0  0  0  0
    0.7414   -1.6498   -1.3738 H   0  0  0  0  0  0  0  0  0  0  0  0
    0.5704   -1.4232    1.1125 H   0  0  0  0  0  0  0  0  0  0  0  0
    0.2222    0.2873    0.9733 H   0  0  0  0  0  0  0  0  0  0  0  0
   -3.2667    1.2014    1.7405 H   0  0  0  0  0  0  0  0  0  0  0  0
  1  2  1  0
  2  3  2  0
  2  4  1  0
  4  5  2  3
  5  6  1  0
  6  7  1  0
  7  8  2  0
  8  9  1  0
  9 10  1  0
 10 11  1  0
 11 12  1  0
 12 13  1  0
 13 14  2  0
 14 15  1  0
 15 16  1  0
 15 17  2  0
 14 18  1  0
 18 19  2  0
 19 20  1  0
 20 21  1  0
 21 22  1  0
 21 23  2  0
  9  5  1  0
 19 12  1  0
  6 24  1  0
 10 25  1  0
 10 26  1  0
 11 27  1  0
 11 28  1  0
 20 29  1  0
M  CHG  6   1  -1   2   1  15   1  16  -1  21   1  22  -1
M  END
$$$$
