
     RDKit          3D

 28 29  0  0  0  0  0  0  0  0999 V2000
    2.2697    0.5752   -0.8469 N   0  0  0  0  0  0  0  0  0  0  0  0
    2.0296   -0.0073    0.3446 C   0  0  0  0  0  0  0  0  0  0  0  0
    2.7420   -0.9614    0.8870 N   0  0  0  0  0  0  0  0  0  0  0  0
    2.0650   -1.2211    2.0510 C   0  0  0  0  0  0  0  0  0  0  0  0
    2.4924   -2.2376    3.0017 N   0  0  0  0  0  4  0  0  0  0  0  0
    1.8265   -2.3804    4.0401 O   0  0  0  0  0  1  0  0  0  0  0  0
    3.5026   -2.8964    2.7093 O   0  0  0  0  0  0  0  0  0  0  0  0
    0.9780   -0.4642    2.2750 N   0  0  0  0  0  0  0  0  0  0  0  0
    0.9799    0.3220    1.1731 N   0  0  0  0  0  0  0  0  0  0  0  0
    0.0607    1.4397    1.1325 C   0  0  0  0  0  0  0  0  0  0  0  0
   -0.4763    1.8819   -0.2205 C   0  0  0  0  0  0  0  0  0  0  0  0
   -1.1340    0.8233   -0.9515 N   0  0  0  0  0  0  0  0  0  0  0  0
   -0.4605    0.1545   -1.9138 N   0  0  0  0  0  0  0  0  0  0  0  0
   -1.3878   -0.7537   -2.2742 C   0  0  0  0  0  0  0  0  0  0  0  0
   -1.1176   -1.7374   -3.3126 N   0  0  0  0  0  4  0  0  0  0  0  0
   -2.0438   -2.4995   -3.6274 O   0  0  0  0  0  1  0  0  0  0  0  0
    0.0178   -1.7445   -3.8159 O   0  0  0  0  0  0  0  0  0  0  0  0
   -2.5849   -0.6816   -1.6054 N   0  0  0  0  0  0  0  0  0  0  0  0
   -2.4039    0.3247   -0.7887 C   0  0  0  0  0  0  0  0  0  0  0  0
   -3.2896    0.8003    0.1027 N   0  0  0  0  0  0  0  0  0  0  0  0
    3.1001    0.1823   -1.2942 H   0  0  0  0  0  0  0  0  0  0  0  0
    1.5122    0.4595   -1.5325 H   0  0  0  0  0  0  0  0  0  0  0  0
    0.5824    2.2780    1.6094 H   0  0  0  0  0  0  0  0  0  0  0  0
   -0.7837    1.1755    1.7823 H   0  0  0  0  0  0  0  0  0  0  0  0
    0.3123    2.2972   -0.8566 H   0  0  0  0  0  0  0  0  0  0  0  0
   -1.2082    2.6864   -0.0839 H   0  0  0  0  0  0  0  0  0  0  0  0
   -4.2193    0.3859    0.0270 H   0  0  0  0  0  0  0  0  0  0  0  0
   -3.3615    1.7987    0.2725 H   0  0  0  0  0  0  0  0  0  0  0  0
  1  2  1  0
  2  3  2  0
  3  4  1  0
  4  5  1  0
  5  6  1  0
  5  7  2  0
  4  8  2  0
  8  9  1  0
  9 10  1  0
 10 11  1  0
 11 12  1  0
 12 13  1  0
 13 14  2  0
 14 15  1  0
 15 16  1  0
 15 17  2  0
 14 18  1  0
 18 19  2  0
 19 20  1  0
  9  2  1  0
 19 12  1  0
  1 21  1  0
  1 22  1  0
 10 23  1  0
 10 24  1  0
 11 25  1  0
 11 26  1  0
 20 27  1  0
 20 28  1  0
M  CHG  4   5   1   6  -1  15   1  16  -1
M  END
$$$$
