
     RDKit          3D

 35 36  0  0  0  0  0  0  0  0999 V2000
   -3.6753    2.4436    2.2208 C   0  0  0  0  0  0  0  0  0  0  0  0
   -4.0319    1.4507    1.2071 N   0  0  0  0  0  0  0  0  0  0  0  0
   -3.0132    0.8491    0.7420 N   0  0  0  0  0  4  0  0  0  0  0  0
   -1.7972    1.0321    1.0955 O   0  0  0  0  0  1  0  0  0  0  0  0
   -3.2624   -0.1928   -0.2932 C   0  0  0  0  0  0  0  0  0  0  0  0
   -4.4463   -0.7840   -0.4991 N   0  0  0  0  0  0  0  0  0  0  0  0
   -4.2053   -1.7344   -1.4781 O   0  0  0  0  0  0  0  0  0  0  0  0
   -2.8751   -1.7282   -1.8687 N   0  0  0  0  0  0  0  0  0  0  0  0
   -2.2918   -0.7432   -1.1731 C   0  0  0  0  0  0  0  0  0  0  0  0
   -0.9764   -0.3910   -1.2678 N   0  0  0  0  0  0  0  0  0  0  0  0
    0.0153   -1.4164   -1.5730 C   0  0  0  0  0  0  0  0  0  0  0  0
    1.1454   -1.3839   -0.6461 N   0  0  0  0  0  0  0  0  0  0  0  0
    2.4091   -1.4660   -1.1601 C   0  0  0  0  0  0  0  0  0  0  0  0
    2.7406   -2.1569   -2.2590 N   0  0  0  0  0  0  0  0  0  0  0  0
    4.1059   -1.9820   -2.4206 O   0  0  0  0  0  0  0  0  0  0  0  0
    4.6209   -1.1368   -1.4539 N   0  0  0  0  0  0  0  0  0  0  0  0
    3.5744   -0.8003   -0.6886 C   0  0  0  0  0  0  0  0  0  0  0  0
    3.6466    0.1671    0.4457 N   0  0  0  0  0  4  0  0  0  0  0  0
    4.8028    0.3945    0.9371 O   0  0  0  0  0  1  0  0  0  0  0  0
    2.5568    0.7150    0.8088 N   0  0  0  0  0  0  0  0  0  0  0  0
    2.7487    1.6518    1.9171 C   0  0  0  0  0  0  0  0  0  0  0  0
    0.9349   -2.0148    0.5634 N   0  0  0  0  0  4  0  0  0  0  0  0
   -0.2362   -2.2536    0.8703 O   0  0  0  0  0  1  0  0  0  0  0  0
    1.9256   -2.2795    1.2509 O   0  0  0  0  0  0  0  0  0  0  0  0
   -0.6970    0.8692   -1.7503 N   0  0  0  0  0  4  0  0  0  0  0  0
    0.4864    1.1121   -2.0053 O   0  0  0  0  0  1  0  0  0  0  0  0
   -1.6405    1.6523   -1.9006 O   0  0  0  0  0  0  0  0  0  0  0  0
   -3.0269    3.2251    1.8098 H   0  0  0  0  0  0  0  0  0  0  0  0
   -4.5901    2.9295    2.5743 H   0  0  0  0  0  0  0  0  0  0  0  0
   -3.1946    1.9792    3.0888 H   0  0  0  0  0  0  0  0  0  0  0  0
   -0.4217   -2.4269   -1.5733 H   0  0  0  0  0  0  0  0  0  0  0  0
    0.3423   -1.2905   -2.6170 H   0  0  0  0  0  0  0  0  0  0  0  0
    1.7778    2.0792    2.1866 H   0  0  0  0  0  0  0  0  0  0  0  0
    3.1435    1.1490    2.8067 H   0  0  0  0  0  0  0  0  0  0  0  0
    3.4054    2.4818    1.6347 H   0  0  0  0  0  0  0  0  0  0  0  0
  1  2  1  0
  2  3  2  0
  3  4  1  0
  3  5  1  0
  5  6  2  0
  6  7  1  0
  7  8  1  0
  8  9  2  0
  9 10  1  0
 10 11  1  0
 11 12  1  0
 12 13  1  0
 13 14  2  0
 14 15  1  0
 15 16  1  0
 16 17  2  0
 17 18  1  0
 18 19  1  0
 18 20  2  0
 20 21  1  0
 12 22  1  0
 22 23  1  0
 22 24  2  0
 10 25  1  0
 25 26  1  0
 25 27  2  0
  9  5  1  0
 17 13  1  0
  1 28  1  0
  1 29  1  0
  1 30  1  0
 11 31  1  0
 11 32  1  0
 21 33  1  0
 21 34  1  0
 21 35  1  0
M  CHG  8   3   1   4  -1  18   1  19  -1  22   1  23  -1  25   1  26  -1
M  END
$$$$
