
     RDKit          3D

 17 17  0  0  0  0  0  0  0  0999 V2000
   -3.2678   -0.2062   -0.7444 C   0  0  0  0  0  0  0  0  0  0  0  0
   -2.1670    0.7419   -0.5686 N   0  0  0  0  0  0  0  0  0  0  0  0
   -1.0588    0.1621   -0.3518 N   0  0  0  0  0  4  0  0  0  0  0  0
   -0.8583   -1.1022   -0.2825 O   0  0  0  0  0  1  0  0  0  0  0  0
    0.1383    1.0234   -0.1562 C   0  0  0  0  0  0  0  0  0  0  0  0
    0.1328    2.3601   -0.1918 N   0  0  0  0  0  0  0  0  0  0  0  0
    1.4530    2.7186    0.0393 O   0  0  0  0  0  0  0  0  0  0  0  0
    2.2508    1.6024    0.2134 N   0  0  0  0  0  0  0  0  0  0  0  0
    1.4503    0.5389    0.0953 C   0  0  0  0  0  0  0  0  0  0  0  0
    1.7426   -0.7837    0.1828 N   0  0  0  0  0  0  0  0  0  0  0  0
    2.9752   -1.2676    0.4198 N   0  0  0  0  0  4  0  0  0  0  0  0
    3.9288   -0.5070    0.5736 O   0  0  0  0  0  1  0  0  0  0  0  0
    3.0021   -2.4989    0.4566 O   0  0  0  0  0  0  0  0  0  0  0  0
   -3.4250   -0.8125    0.1543 H   0  0  0  0  0  0  0  0  0  0  0  0
   -3.1039   -0.8583   -1.6093 H   0  0  0  0  0  0  0  0  0  0  0  0
   -4.1897    0.3547   -0.9268 H   0  0  0  0  0  0  0  0  0  0  0  0
    0.9968   -1.4658    0.0647 H   0  0  0  0  0  0  0  0  0  0  0  0
  1  2  1  0
  2  3  2  0
  3  4  1  0
  3  5  1  0
  5  6  2  0
  6  7  1  0
  7  8  1  0
  8  9  2  0
  9 10  1  0
 10 11  1  0
 11 12  1  0
 11 13  2  0
  9  5  1  0
  1 14  1  0
  1 15  1  0
  1 16  1  0
 10 17  1  0
M  CHG  4   3   1   4  -1  11   1  12  -1
M  END
$$$$
