
     RDKit          3D

 33 36  0  0  0  0  0  0  0  0999 V2000
   -0.8367   -3.2859    2.3019 O   0  0  0  0  0  1  0  0  0  0  0  0
   -1.2986   -2.1617    2.0872 N   0  0  0  0  0  4  0  0  0  0  0  0
   -2.2725   -1.6665    2.6627 O   0  0  0  0  0  0  0  0  0  0  0  0
   -0.6658   -1.4047    1.1154 N   0  0  0  0  0  0  0  0  0  0  0  0
    0.1802   -2.1915    0.2120 C   0  0  0  0  0  0  0  0  0  0  0  0
    1.0251   -1.3501   -0.6363 N   0  0  0  0  0  0  0  0  0  0  0  0
    1.0174   -1.5561   -1.9866 C   0  0  0  0  0  0  0  0  0  0  0  0
    0.8868   -2.7466   -2.5865 N   0  0  0  0  0  0  0  0  0  0  0  0
    0.9331   -2.4874   -3.9493 O   0  0  0  0  0  0  0  0  0  0  0  0
    1.0257   -1.1278   -4.2017 N   0  0  0  0  0  0  0  0  0  0  0  0
    1.0603   -0.5542   -2.9954 C   0  0  0  0  0  0  0  0  0  0  0  0
    1.0698    0.8958   -2.7890 C   0  0  0  0  0  0  0  0  0  0  0  0
    1.2932    1.7623   -3.8343 N   0  0  0  0  0  0  0  0  0  0  0  0
    1.2019    2.9283   -3.2467 C   0  0  0  0  0  0  0  0  0  0  0  0
    0.9261    2.8564   -1.9198 O   0  0  0  0  0  0  0  0  0  0  0  0
    0.8329    1.4977   -1.6113 N   0  0  0  0  0  0  0  0  0  0  0  0
    2.2292   -0.9771   -0.0785 N   0  0  0  0  0  4  0  0  0  0  0  0
    2.2895   -0.9862    1.1532 O   0  0  0  0  0  1  0  0  0  0  0  0
    3.1464   -0.6590   -0.8412 O   0  0  0  0  0  0  0  0  0  0  0  0
   -1.4475   -0.4226    0.5636 C   0  0  0  0  0  0  0  0  0  0  0  0
   -2.0196   -0.4852   -0.6475 N   0  0  0  0  0  0  0  0  0  0  0  0
   -2.7048    0.7110   -0.8029 O   0  0  0  0  0  0  0  0  0  0  0  0
   -2.5185    1.5439    0.2877 N   0  0  0  0  0  0  0  0  0  0  0  0
   -1.7307    0.8554    1.1200 C   0  0  0  0  0  0  0  0  0  0  0  0
   -1.2210    1.4017    2.3789 C   0  0  0  0  0  0  0  0  0  0  0  0
   -1.6700    2.6119    2.8594 N   0  0  0  0  0  0  0  0  0  0  0  0
   -0.9793    2.7399    3.9635 C   0  0  0  0  0  0  0  0  0  0  0  0
   -0.1291    1.7105    4.2040 O   0  0  0  0  0  0  0  0  0  0  0  0
   -0.2813    0.8190    3.1403 N   0  0  0  0  0  0  0  0  0  0  0  0
   -0.4800   -2.8234   -0.4018 H   0  0  0  0  0  0  0  0  0  0  0  0
    0.8230   -2.9024    0.7525 H   0  0  0  0  0  0  0  0  0  0  0  0
    1.3119    3.9151   -3.6711 H   0  0  0  0  0  0  0  0  0  0  0  0
   -0.9973    3.5394    4.6890 H   0  0  0  0  0  0  0  0  0  0  0  0
  1  2  1  0
  2  3  2  0
  2  4  1  0
  4  5  1  0
  5  6  1  0
  6  7  1  0
  7  8  2  0
  8  9  1  0
  9 10  1  0
 10 11  2  0
 11 12  1  0
 12 13  1  0
 13 14  2  0
 14 15  1  0
 15 16  1  0
  6 17  1  0
 17 18  1  0
 17 19  2  0
  4 20  1  0
 20 21  2  0
 21 22  1  0
 22 23  1  0
 23 24  2  0
 24 25  1  0
 25 26  1  0
 26 27  2  0
 27 28  1  0
 28 29  1  0
 11  7  1  0
 16 12  2  0
 24 20  1  0
 29 25  2  0
  5 30  1  0
  5 31  1  0
 14 32  1  0
 27 33  1  0
M  CHG  4   1  -1   2   1  17   1  18  -1
M  END
$$$$
