
     RDKit          3D

 18 19  0  0  0  0  0  0  0  0999 V2000
   -3.6037    2.0721   -1.5280 O   0  0  0  0  0  1  0  0  0  0  0  0
   -3.8260    1.0462   -0.8676 N   0  0  0  0  0  4  0  0  0  0  0  0
   -4.9520    0.6116   -0.5807 O   0  0  0  0  0  0  0  0  0  0  0  0
   -2.6834    0.2810   -0.3840 C   0  0  0  0  0  0  0  0  0  0  0  0
   -2.8178   -0.8713    0.3552 N   0  0  0  0  0  0  0  0  0  0  0  0
   -1.5667   -1.2123    0.5660 C   0  0  0  0  0  0  0  0  0  0  0  0
   -0.7158   -0.3076   -0.0191 N   0  0  0  0  0  0  0  0  0  0  0  0
    0.6701   -0.2687   -0.0528 C   0  0  0  0  0  0  0  0  0  0  0  0
    1.4100    0.6481   -0.6448 N   0  0  0  0  0  0  0  0  0  0  0  0
    2.6891    0.2197   -0.3784 C   0  0  0  0  0  0  0  0  0  0  0  0
    3.8789    0.9263   -0.8383 N   0  0  0  0  0  4  0  0  0  0  0  0
    4.9862    0.4502   -0.5420 O   0  0  0  0  0  1  0  0  0  0  0  0
    3.7008    1.9610   -1.4980 O   0  0  0  0  0  0  0  0  0  0  0  0
    2.7756   -0.9116    0.3458 N   0  0  0  0  0  0  0  0  0  0  0  0
    1.4760   -1.1990    0.5380 N   0  0  0  0  0  0  0  0  0  0  0  0
   -1.4228    0.6630   -0.6367 N   0  0  0  0  0  0  0  0  0  0  0  0
   -1.2352   -2.0795    1.1195 H   0  0  0  0  0  0  0  0  0  0  0  0
    1.2367   -2.0292    1.0714 H   0  0  0  0  0  0  0  0  0  0  0  0
  1  2  1  0
  2  3  2  0
  2  4  1  0
  4  5  1  0
  5  6  2  0
  6  7  1  0
  7  8  1  0
  8  9  2  0
  9 10  1  0
 10 11  1  0
 11 12  1  0
 11 13  2  0
 10 14  2  0
 14 15  1  0
  7 16  1  0
 15  8  1  0
 16  4  2  0
  6 17  1  0
 15 18  1  0
M  CHG  4   1  -1   2   1  11   1  12  -1
M  END
$$$$
