
     RDKit          3D

 20 21  0  0  0  0  0  0  0  0999 V2000
   -3.1745    0.7510    1.3060 N   0  0  0  0  0  0  0  0  0  0  0  0
   -2.1375    0.1703    0.5594 N   0  0  0  0  0  0  0  0  0  0  0  0
   -0.9194    0.7322    0.5368 N   0  0  0  0  0  0  0  0  0  0  0  0
   -0.2146   -0.1690   -0.1597 C   0  0  0  0  0  0  0  0  0  0  0  0
    1.1786   -0.0009   -0.4243 N   0  0  0  0  0  0  0  0  0  0  0  0
    1.9683   -0.8856   -1.1274 C   0  0  0  0  0  0  0  0  0  0  0  0
    3.2063   -0.4529   -1.2068 N   0  0  0  0  0  0  0  0  0  0  0  0
    3.1382    0.7332   -0.5200 C   0  0  0  0  0  0  0  0  0  0  0  0
    4.2944    1.6019   -0.3329 N   0  0  0  0  0  4  0  0  0  0  0  0
    4.1325    2.6580    0.2984 O   0  0  0  0  0  1  0  0  0  0  0  0
    5.3689    1.2223   -0.8229 O   0  0  0  0  0  0  0  0  0  0  0  0
    1.9352    1.0585   -0.0250 N   0  0  0  0  0  0  0  0  0  0  0  0
   -0.9042   -1.2615   -0.6100 N   0  0  0  0  0  0  0  0  0  0  0  0
   -2.1126   -0.9990   -0.1449 C   0  0  0  0  0  0  0  0  0  0  0  0
   -3.2603   -1.8044   -0.3467 N   0  0  0  0  0  4  0  0  0  0  0  0
   -3.0862   -3.0291   -0.3541 O   0  0  0  0  0  1  0  0  0  0  0  0
   -4.3357   -1.2212   -0.5376 O   0  0  0  0  0  0  0  0  0  0  0  0
   -3.8690    1.1824    0.6973 H   0  0  0  0  0  0  0  0  0  0  0  0
   -2.7862    1.5195    1.8531 H   0  0  0  0  0  0  0  0  0  0  0  0
    1.5777   -1.8058   -1.5423 H   0  0  0  0  0  0  0  0  0  0  0  0
  1  2  1  0
  2  3  1  0
  3  4  2  0
  4  5  1  0
  5  6  1  0
  6  7  2  0
  7  8  1  0
  8  9  1  0
  9 10  1  0
  9 11  2  0
  8 12  2  0
  4 13  1  0
 13 14  2  0
 14 15  1  0
 15 16  1  0
 15 17  2  0
 12  5  1  0
 14  2  1  0
  1 18  1  0
  1 19  1  0
  6 20  1  0
M  CHG  4   9   1  10  -1  15   1  16  -1
M  END
$$$$
