
     RDKit          3D

 20 21  0  0  0  0  0  0  0  0999 V2000
   -5.3085    0.1169   -0.5266 N   0  0  0  0  0  0  0  0  0  0  0  0
   -4.2460   -0.1306   -0.4820 N   0  0  0  0  0  4  0  0  0  0  0  0
   -2.8201   -0.4721   -0.3979 C   0  0  0  0  0  0  0  0  0  0  0  0
   -2.3132   -1.6642   -0.7612 N   0  0  0  0  0  2  0  0  0  0  0  0
   -0.9904   -1.5714   -0.5370 N   0  0  0  0  0  0  0  0  0  0  0  0
   -0.7288   -0.3038   -0.1352 C   0  0  0  0  0  0  0  0  0  0  0  0
    0.7301    0.2814   -0.0391 C   0  0  0  0  0  0  0  0  0  0  0  0
    0.9882    1.6086    0.0538 N   0  0  0  0  0  0  0  0  0  0  0  0
    2.3060    1.7839   -0.1493 N   0  0  0  0  0  2  0  0  0  0  0  0
    2.8158    0.5444   -0.2671 C   0  0  0  0  0  0  0  0  0  0  0  0
    4.2380    0.2649   -0.5040 N   0  0  0  0  0  4  0  0  0  0  0  0
    5.2981    0.0563   -0.6612 N   0  0  0  0  0  0  0  0  0  0  0  0
    1.8840   -0.4440   -0.1456 C   0  0  0  0  0  0  0  0  0  0  0  0
    2.1332   -1.7985   -0.1882 N   0  0  0  0  0  4  0  0  0  0  0  0
    1.7505   -2.4752    0.7660 O   0  0  0  0  0  1  0  0  0  0  0  0
    2.9631   -2.1207   -1.0516 O   0  0  0  0  0  0  0  0  0  0  0  0
   -1.8816    0.4042    0.0617 C   0  0  0  0  0  0  0  0  0  0  0  0
   -2.1259    1.6762    0.5317 N   0  0  0  0  0  4  0  0  0  0  0  0
   -2.9734    2.2929   -0.1311 O   0  0  0  0  0  1  0  0  0  0  0  0
   -1.7190    1.9509    1.6604 O   0  0  0  0  0  0  0  0  0  0  0  0
  1  2  3  0
  2  3  1  0
  3  4  1  0
  4  5  1  0
  5  6  2  0
  6  7  1  0
  7  8  2  0
  8  9  1  0
  9 10  1  0
 10 11  1  0
 11 12  3  0
 10 13  2  0
 13 14  1  0
 14 15  1  0
 14 16  2  0
  6 17  1  0
 17 18  1  0
 18 19  1  0
 18 20  2  0
 13  7  1  0
 17  3  2  0
M  CHG  8   2   1   4  -1   9  -1  11   1  14   1  15  -1  18   1  19  -1
M  END
$$$$
