
     RDKit          3D

 16 17  0  0  0  0  0  0  0  0999 V2000
    0.8296    2.6349    0.4996 O   0  0  0  0  0  0  0  0  0  0  0  0
   -0.2877    1.8709    0.1512 N   0  0  0  0  0  0  0  0  0  0  0  0
   -0.0257    0.5940    0.0632 C   0  0  0  0  0  0  0  0  0  0  0  0
    1.2402   -0.0761    0.2791 C   0  0  0  0  0  0  0  0  0  0  0  0
    2.3843    0.4956    0.6113 N   0  0  0  0  0  0  0  0  0  0  0  0
    3.3161   -0.5074    0.7108 N   0  0  0  0  0  0  0  0  0  0  0  0
    2.7729   -1.6849    0.4475 N   0  0  0  0  0  0  0  0  0  0  0  0
    1.4894   -1.4209    0.1803 N   0  0  0  0  0  0  0  0  0  0  0  0
   -1.1374   -0.2505   -0.2933 C   0  0  0  0  0  0  0  0  0  0  0  0
   -1.1262   -1.5626   -0.4435 N   0  0  0  0  0  0  0  0  0  0  0  0
   -2.4082   -1.9192   -0.7827 N   0  0  0  0  0  0  0  0  0  0  0  0
   -3.1968   -0.8560   -0.8419 N   0  0  0  0  0  0  0  0  0  0  0  0
   -2.4095    0.1831   -0.5381 N   0  0  0  0  0  0  0  0  0  0  0  0
    0.4895    3.5485    0.5270 H   0  0  0  0  0  0  0  0  0  0  0  0
    0.8519   -2.1748   -0.0556 H   0  0  0  0  0  0  0  0  0  0  0  0
   -2.7826    1.1252   -0.5149 H   0  0  0  0  0  0  0  0  0  0  0  0
  1  2  1  0
  2  3  2  3
  3  4  1  0
  4  5  2  0
  5  6  1  0
  6  7  2  0
  7  8  1  0
  3  9  1  0
  9 10  2  0
 10 11  1  0
 11 12  2  0
 12 13  1  0
  8  4  1  0
 13  9  1  0
  1 14  1  0
  8 15  1  0
 13 16  1  0
M  END
$$$$
