
     RDKit          3D

 17 18  0  0  0  0  0  0  0  0999 V2000
   -0.2653    1.0151   -2.3569 N   0  0  0  0  0  0  0  0  0  0  0  0
   -0.9741    0.8631   -1.1807 N   0  0  0  0  0  0  0  0  0  0  0  0
   -0.4228    0.2436   -0.1691 C   0  0  0  0  0  0  0  0  0  0  0  0
    0.9039   -0.3204   -0.1726 C   0  0  0  0  0  0  0  0  0  0  0  0
    1.4974   -0.9456    0.8302 N   0  0  0  0  0  0  0  0  0  0  0  0
    2.7418   -1.3081    0.3746 N   0  0  0  0  0  0  0  0  0  0  0  0
    2.9192   -0.9198   -0.8797 N   0  0  0  0  0  0  0  0  0  0  0  0
    1.7789   -0.3075   -1.2179 N   0  0  0  0  0  0  0  0  0  0  0  0
   -1.1730    0.0956    1.0565 C   0  0  0  0  0  0  0  0  0  0  0  0
   -2.4013    0.5429    1.2500 N   0  0  0  0  0  0  0  0  0  0  0  0
   -2.7434    0.1990    2.5353 N   0  0  0  0  0  0  0  0  0  0  0  0
   -1.7538   -0.4475    3.1327 N   0  0  0  0  0  0  0  0  0  0  0  0
   -0.7798   -0.5127    2.2176 N   0  0  0  0  0  0  0  0  0  0  0  0
   -0.8439    0.6624   -3.1311 H   0  0  0  0  0  0  0  0  0  0  0  0
   -0.2268    2.0176   -2.5852 H   0  0  0  0  0  0  0  0  0  0  0  0
    1.6428    0.0913   -2.1403 H   0  0  0  0  0  0  0  0  0  0  0  0
    0.1001   -0.9690    2.4368 H   0  0  0  0  0  0  0  0  0  0  0  0
  1  2  1  0
  2  3  2  3
  3  4  1  0
  4  5  2  0
  5  6  1  0
  6  7  2  0
  7  8  1  0
  3  9  1  0
  9 10  2  0
 10 11  1  0
 11 12  2  0
 12 13  1  0
  8  4  1  0
 13  9  1  0
  1 14  1  0
  1 15  1  0
  8 16  1  0
 13 17  1  0
M  END
$$$$
