
     RDKit          3D

 14 14  0  0  0  0  0  0  0  0999 V2000
   -2.1838   -0.5001    0.9450 N   0  0  0  0  0  0  0  0  0  0  0  0
   -0.9109   -0.6546    0.5491 C   0  0  0  0  0  0  0  0  0  0  0  0
   -0.2357   -1.8196    0.7547 N   0  0  0  0  0  0  0  0  0  0  0  0
    0.9927   -1.6709    0.2645 N   0  0  0  0  0  0  0  0  0  0  0  0
    1.0877   -0.4309   -0.2555 N   0  0  0  0  0  0  0  0  0  0  0  0
    2.2455   -0.0020   -0.9384 N   0  0  0  0  0  0  0  0  0  0  0  0
   -0.0807    0.2377   -0.0643 C   0  0  0  0  0  0  0  0  0  0  0  0
   -0.2809    1.5653   -0.4551 N   0  0  0  0  0  4  0  0  0  0  0  0
    0.6914    2.3291   -0.4022 O   0  0  0  0  0  1  0  0  0  0  0  0
   -1.4312    1.8791   -0.7868 O   0  0  0  0  0  0  0  0  0  0  0  0
   -2.7127   -1.3324    1.1936 H   0  0  0  0  0  0  0  0  0  0  0  0
   -2.7654    0.2331    0.5416 H   0  0  0  0  0  0  0  0  0  0  0  0
    2.6057    0.8633   -0.5365 H   0  0  0  0  0  0  0  0  0  0  0  0
    2.9785   -0.6971   -0.8096 H   0  0  0  0  0  0  0  0  0  0  0  0
  1  2  1  0
  2  3  1  0
  3  4  2  0
  4  5  1  0
  5  6  1  0
  5  7  1  0
  7  8  1  0
  8  9  1  0
  8 10  2  0
  7  2  2  0
  1 11  1  0
  1 12  1  0
  6 13  1  0
  6 14  1  0
M  CHG  2   8   1   9  -1
M  END
$$$$
