
     RDKit          3D

 14 14  0  0  0  0  0  0  0  0999 V2000
   -0.2025    1.6560   -0.2313 N   0  0  0  0  0  0  0  0  0  0  0  0
    0.0008    0.3223   -0.0352 C   0  0  0  0  0  0  0  0  0  0  0  0
    1.0731   -0.4583    0.3540 C   0  0  0  0  0  0  0  0  0  0  0  0
    2.4106   -0.0645    0.6738 N   0  0  0  0  0  4  0  0  0  0  0  0
    3.1761   -0.9350    1.1087 O   0  0  0  0  0  1  0  0  0  0  0  0
    2.7096    1.1249    0.4859 O   0  0  0  0  0  0  0  0  0  0  0  0
    0.7139   -1.7796    0.4053 N   0  0  0  0  0  0  0  0  0  0  0  0
   -0.5641   -1.8605    0.0511 N   0  0  0  0  0  0  0  0  0  0  0  0
   -0.9960   -0.6200   -0.2183 N   0  0  0  0  0  0  0  0  0  0  0  0
   -2.3098   -0.3190   -0.6303 N   0  0  0  0  0  0  0  0  0  0  0  0
    0.5952    2.2888   -0.3163 H   0  0  0  0  0  0  0  0  0  0  0  0
   -1.0197    1.9599   -0.7636 H   0  0  0  0  0  0  0  0  0  0  0  0
   -2.8878   -0.1683    0.1929 H   0  0  0  0  0  0  0  0  0  0  0  0
   -2.6994   -1.1469   -1.0767 H   0  0  0  0  0  0  0  0  0  0  0  0
  1  2  1  0
  2  3  2  0
  3  4  1  0
  4  5  1  0
  4  6  2  0
  3  7  1  0
  7  8  2  0
  8  9  1  0
  9 10  1  0
  9  2  1  0
  1 11  1  0
  1 12  1  0
 10 13  1  0
 10 14  1  0
M  CHG  2   4   1   5  -1
M  END
$$$$
