
     RDKit          3D

 18 19  0  0  0  0  0  0  0  0999 V2000
   -1.9158    1.9973   -1.1464 N   0  0  0  0  0  0  0  0  0  0  0  0
   -1.5869    0.7479   -0.9538 C   0  0  0  0  0  0  0  0  0  0  0  0
   -1.9212   -0.3800   -1.5723 N   0  0  0  0  0  4  0  0  0  0  0  0
   -1.1964   -1.4599   -1.0631 N   0  0  0  0  0  0  0  0  0  0  0  0
   -0.4266   -0.8744   -0.1491 C   0  0  0  0  0  0  0  0  0  0  0  0
    0.7265   -1.5501    0.6509 C   0  0  0  0  0  0  0  0  0  0  0  0
    0.9420   -2.8674    0.6102 N   0  0  0  0  0  0  0  0  0  0  0  0
    1.9923   -3.0746    1.5005 O   0  0  0  0  0  0  0  0  0  0  0  0
    2.4175   -1.8812    2.0687 N   0  0  0  0  0  0  0  0  0  0  0  0
    1.6719   -0.9272    1.5023 C   0  0  0  0  0  0  0  0  0  0  0  0
    1.9164    0.3929    1.8274 N   0  0  0  0  0  2  0  0  0  0  0  0
    1.6389    1.3944    0.7684 N   0  0  0  0  0  4  0  0  0  0  0  0
    0.9663    2.3757    1.1109 O   0  0  0  0  0  1  0  0  0  0  0  0
    2.0250    1.1528   -0.3821 O   0  0  0  0  0  0  0  0  0  0  0  0
   -0.7527    0.4563    0.0196 O   0  0  0  0  0  0  0  0  0  0  0  0
   -2.4976    2.2787   -1.9143 H   0  0  0  0  0  0  0  0  0  0  0  0
   -1.4085    2.6423   -0.5449 H   0  0  0  0  0  0  0  0  0  0  0  0
   -2.5909   -0.4236   -2.3331 H   0  0  0  0  0  0  0  0  0  0  0  0
  1  2  1  0
  2  3  2  0
  3  4  1  0
  4  5  2  0
  5  6  1  0
  6  7  2  0
  7  8  1  0
  8  9  1  0
  9 10  2  0
 10 11  1  0
 11 12  1  0
 12 13  1  0
 12 14  2  0
  5 15  1  0
 10  6  1  0
 15  2  1  0
  1 16  1  0
  1 17  1  0
  3 18  1  0
M  CHG  4   3   1  11  -1  12   1  13  -1
M  END
$$$$
