
     RDKit          3D

 30 31  0  0  0  0  0  0  0  0999 V2000
    0.2677   -0.7830    0.2332 C   0  0  1  0  0  0  0  0  0  0  0  0
    1.1934   -0.6374   -0.9744 C   0  0  0  0  0  0  0  0  0  0  0  0
    1.9118    0.6935   -0.7300 C   0  0  0  0  0  0  0  0  0  0  0  0
    2.4268    1.2094   -1.9595 O   0  0  0  0  0  0  0  0  0  0  0  0
    3.2641    2.3584   -1.6148 O   0  0  0  0  0  0  0  0  0  0  0  0
    2.9068    0.5329    0.3026 O   0  0  0  0  0  0  0  0  0  0  0  0
    4.1010   -0.0356   -0.3218 O   0  0  0  0  0  0  0  0  0  0  0  0
    0.7792    1.5779   -0.1958 C   0  0  0  0  0  0  0  0  0  0  0  0
   -0.0157    0.6508    0.7239 C   0  0  1  0  0  0  0  0  0  0  0  0
   -1.5341    0.8198    0.6706 C   0  0  0  0  0  0  0  0  0  0  0  0
   -2.0695   -0.6085    0.8155 C   0  0  0  0  0  0  0  0  0  0  0  0
   -3.4016   -0.6900    0.3038 O   0  0  0  0  0  0  0  0  0  0  0  0
   -3.9059   -2.0173    0.6559 O   0  0  0  0  0  0  0  0  0  0  0  0
   -1.9377   -1.0461    2.1841 O   0  0  0  0  0  0  0  0  0  0  0  0
   -3.0794   -0.5143    2.9276 O   0  0  0  0  0  0  0  0  0  0  0  0
   -1.0967   -1.4079   -0.0591 C   0  0  0  0  0  0  0  0  0  0  0  0
    0.7751   -1.3426    1.0295 H   0  0  0  0  0  0  0  0  0  0  0  0
    1.8867   -1.4824   -1.0400 H   0  0  0  0  0  0  0  0  0  0  0  0
    0.6327   -0.6012   -1.9162 H   0  0  0  0  0  0  0  0  0  0  0  0
    4.0244    1.8352   -1.2853 H   0  0  0  0  0  0  0  0  0  0  0  0
    4.0646   -0.8981    0.1321 H   0  0  0  0  0  0  0  0  0  0  0  0
    0.1672    1.9583   -1.0224 H   0  0  0  0  0  0  0  0  0  0  0  0
    1.1578    2.4438    0.3581 H   0  0  0  0  0  0  0  0  0  0  0  0
    0.3369    0.7539    1.7583 H   0  0  0  0  0  0  0  0  0  0  0  0
   -1.8628    1.2560   -0.2806 H   0  0  0  0  0  0  0  0  0  0  0  0
   -1.8822    1.4817    1.4705 H   0  0  0  0  0  0  0  0  0  0  0  0
   -4.0718   -1.8158    1.6005 H   0  0  0  0  0  0  0  0  0  0  0  0
   -2.5714    0.1005    3.4891 H   0  0  0  0  0  0  0  0  0  0  0  0
   -1.0975   -2.4744    0.1910 H   0  0  0  0  0  0  0  0  0  0  0  0
   -1.3699   -1.3174   -1.1171 H   0  0  0  0  0  0  0  0  0  0  0  0
  1  2  1  0
  2  3  1  0
  3  4  1  0
  4  5  1  0
  3  6  1  0
  6  7  1  0
  3  8  1  0
  8  9  1  0
  9 10  1  0
 10 11  1  0
 11 12  1  0
 12 13  1  0
 11 14  1  0
 14 15  1  0
 11 16  1  0
  9  1  1  0
 16  1  1  0
  1 17  1  1
  2 18  1  0
  2 19  1  0
  5 20  1  0
  7 21  1  0
  8 22  1  0
  8 23  1  0
  9 24  1  1
 10 25  1  0
 10 26  1  0
 13 27  1  0
 15 28  1  0
 16 29  1  0
 16 30  1  0
M  END
$$$$
