
     RDKit          3D

 26 26  0  0  0  0  0  0  0  0999 V2000
    3.2747   -0.6521   -1.5350 O   0  0  0  0  0  0  0  0  0  0  0  0
    2.4756    0.2804   -0.7401 O   0  0  0  0  0  0  0  0  0  0  0  0
    1.0823    0.0354   -1.0468 C   0  0  0  0  0  0  0  0  0  0  0  0
    0.8430   -0.1420   -2.4570 O   0  0  0  0  0  0  0  0  0  0  0  0
    1.5769    0.9183   -3.1498 O   0  0  0  0  0  0  0  0  0  0  0  0
    0.6577   -1.2564   -0.3222 C   0  0  0  0  0  0  0  0  0  0  0  0
   -0.8197   -1.2179    0.0599 C   0  0  0  0  0  0  0  0  0  0  0  0
   -1.1116   -0.0893    1.0719 C   0  0  0  0  0  0  0  0  0  0  0  0
   -2.4771    0.3350    0.8452 O   0  0  0  0  0  0  0  0  0  0  0  0
   -2.9227    1.0697    2.0297 O   0  0  0  0  0  0  0  0  0  0  0  0
   -0.8863   -0.5810    2.4095 O   0  0  0  0  0  0  0  0  0  0  0  0
   -2.0230   -1.4374    2.7530 O   0  0  0  0  0  0  0  0  0  0  0  0
   -0.1656    1.1149    0.8784 C   0  0  0  0  0  0  0  0  0  0  0  0
    0.2687    1.2584   -0.5774 C   0  0  0  0  0  0  0  0  0  0  0  0
    3.6162   -1.1757   -0.7859 H   0  0  0  0  0  0  0  0  0  0  0  0
    2.4655    0.5211   -3.0314 H   0  0  0  0  0  0  0  0  0  0  0  0
    0.8396   -2.1249   -0.9671 H   0  0  0  0  0  0  0  0  0  0  0  0
    1.2616   -1.4080    0.5816 H   0  0  0  0  0  0  0  0  0  0  0  0
   -1.4234   -1.0845   -0.8474 H   0  0  0  0  0  0  0  0  0  0  0  0
   -1.1042   -2.1908    0.4770 H   0  0  0  0  0  0  0  0  0  0  0  0
   -3.0717    1.9235    1.5810 H   0  0  0  0  0  0  0  0  0  0  0  0
   -2.6761   -0.7113    2.8429 H   0  0  0  0  0  0  0  0  0  0  0  0
    0.7258    1.0059    1.5104 H   0  0  0  0  0  0  0  0  0  0  0  0
   -0.6545    2.0428    1.1971 H   0  0  0  0  0  0  0  0  0  0  0  0
    0.8687    2.1706   -0.6841 H   0  0  0  0  0  0  0  0  0  0  0  0
   -0.6203    1.3955   -1.2071 H   0  0  0  0  0  0  0  0  0  0  0  0
  1  2  1  0
  2  3  1  0
  3  4  1  0
  4  5  1  0
  3  6  1  0
  6  7  1  0
  7  8  1  0
  8  9  1  0
  9 10  1  0
  8 11  1  0
 11 12  1  0
  8 13  1  0
 13 14  1  0
 14  3  1  0
  1 15  1  0
  5 16  1  0
  6 17  1  0
  6 18  1  0
  7 19  1  0
  7 20  1  0
 10 21  1  0
 12 22  1  0
 13 23  1  0
 13 24  1  0
 14 25  1  0
 14 26  1  0
M  END
$$$$
