
     RDKit          3D

 14 15  0  0  0  0  0  0  0  0999 V2000
   -2.7565    1.3480    1.1770 O   0  0  0  0  0  1  0  0  0  0  0  0
   -2.0451    1.1195    0.1899 N   0  0  0  0  0  4  0  0  0  0  0  0
   -1.6513    1.9528   -0.6368 O   0  0  0  0  0  0  0  0  0  0  0  0
   -1.6380   -0.2230   -0.0230 C   0  0  0  0  0  0  0  0  0  0  0  0
   -2.5935   -1.1403   -0.2027 N   0  0  0  0  0  0  0  0  0  0  0  0
   -1.8775   -2.3147   -0.4545 O   0  0  0  0  0  0  0  0  0  0  0  0
   -0.5008   -2.0844   -0.4278 N   0  0  0  0  0  0  0  0  0  0  0  0
   -0.3732   -0.7805   -0.1505 C   0  0  0  0  0  0  0  0  0  0  0  0
    0.9011   -0.0943    0.0177 C   0  0  0  0  0  0  0  0  0  0  0  0
    2.0754   -0.6624   -0.4141 N   0  0  0  0  0  0  0  0  0  0  0  0
    2.9588    0.2377   -0.0625 C   0  0  0  0  0  0  0  0  0  0  0  0
    2.4243    1.3172    0.5631 O   0  0  0  0  0  0  0  0  0  0  0  0
    1.0463    1.0921    0.6246 N   0  0  0  0  0  0  0  0  0  0  0  0
    4.0299    0.2323   -0.2005 H   0  0  0  0  0  0  0  0  0  0  0  0
  1  2  1  0
  2  3  2  0
  2  4  1  0
  4  5  2  0
  5  6  1  0
  6  7  1  0
  7  8  2  0
  8  9  1  0
  9 10  1  0
 10 11  2  0
 11 12  1  0
 12 13  1  0
  8  4  1  0
 13  9  2  0
 11 14  1  0
M  CHG  2   1  -1   2   1
M  END
$$$$
