
     RDKit          3D

 37 38  0  0  0  0  0  0  0  0999 V2000
   -3.9022    3.3396    1.3059 N   0  0  0  0  0  0  0  0  0  0  0  0
   -4.1877    2.0533    0.9466 N   0  0  0  0  0  0  0  0  0  0  0  0
   -3.3006    1.5044    0.1645 C   0  0  0  0  0  0  0  0  0  0  0  0
   -2.1824    2.1525   -0.2927 N   0  0  0  0  0  0  0  0  0  0  0  0
   -3.4902    0.1296   -0.2929 C   0  0  0  0  0  0  0  0  0  0  0  0
   -4.7152   -0.4188   -0.2971 N   0  0  0  0  0  0  0  0  0  0  0  0
   -4.5521   -1.7144   -0.7384 O   0  0  0  0  0  0  0  0  0  0  0  0
   -3.2225   -1.9923   -0.9945 N   0  0  0  0  0  0  0  0  0  0  0  0
   -2.5600   -0.8543   -0.7520 C   0  0  0  0  0  0  0  0  0  0  0  0
   -1.2007   -0.7145   -0.8448 N   0  0  0  0  0  0  0  0  0  0  0  0
   -0.3928   -1.8560   -0.4066 C   0  0  0  0  0  0  0  0  0  0  0  0
    0.8279   -1.4592    0.2911 N   0  0  0  0  0  0  0  0  0  0  0  0
    2.0045   -2.0539   -0.0657 C   0  0  0  0  0  0  0  0  0  0  0  0
    2.1331   -3.2992   -0.5397 N   0  0  0  0  0  0  0  0  0  0  0  0
    3.4894   -3.4832   -0.7495 O   0  0  0  0  0  0  0  0  0  0  0  0
    4.2073   -2.3386   -0.4483 N   0  0  0  0  0  0  0  0  0  0  0  0
    3.2908   -1.4365   -0.0616 C   0  0  0  0  0  0  0  0  0  0  0  0
    3.6754   -0.0701    0.2699 C   0  0  0  0  0  0  0  0  0  0  0  0
    5.0293    0.1714    0.2430 N   0  0  0  0  0  0  0  0  0  0  0  0
    2.7573    0.7998    0.5736 N   0  0  0  0  0  0  0  0  0  0  0  0
    3.2312    2.0432    0.8587 N   0  0  0  0  0  0  0  0  0  0  0  0
    0.6578   -1.2068    1.6380 N   0  0  0  0  0  4  0  0  0  0  0  0
   -0.4436   -0.7586    1.9719 O   0  0  0  0  0  1  0  0  0  0  0  0
    1.5860   -1.4768    2.4080 O   0  0  0  0  0  0  0  0  0  0  0  0
   -0.7579   -0.1132   -2.0058 N   0  0  0  0  0  4  0  0  0  0  0  0
    0.3882   -0.3788   -2.3758 O   0  0  0  0  0  1  0  0  0  0  0  0
   -1.5233    0.6780   -2.5725 O   0  0  0  0  0  0  0  0  0  0  0  0
   -3.5355    3.3286    2.2664 H   0  0  0  0  0  0  0  0  0  0  0  0
   -4.7911    3.8428    1.4109 H   0  0  0  0  0  0  0  0  0  0  0  0
   -2.0714    2.0811   -1.3036 H   0  0  0  0  0  0  0  0  0  0  0  0
   -2.2964    3.1328   -0.0330 H   0  0  0  0  0  0  0  0  0  0  0  0
   -0.9712   -2.5232    0.2522 H   0  0  0  0  0  0  0  0  0  0  0  0
   -0.1798   -2.4988   -1.2753 H   0  0  0  0  0  0  0  0  0  0  0  0
    5.6050   -0.6559    0.3663 H   0  0  0  0  0  0  0  0  0  0  0  0
    5.2648    0.9253    0.8798 H   0  0  0  0  0  0  0  0  0  0  0  0
    3.6775    2.4574    0.0317 H   0  0  0  0  0  0  0  0  0  0  0  0
    2.4516    2.6629    1.0968 H   0  0  0  0  0  0  0  0  0  0  0  0
  1  2  1  0
  2  3  2  0
  3  4  1  0
  3  5  1  0
  5  6  2  0
  6  7  1  0
  7  8  1  0
  8  9  2  0
  9 10  1  0
 10 11  1  0
 11 12  1  0
 12 13  1  0
 13 14  2  0
 14 15  1  0
 15 16  1  0
 16 17  2  0
 17 18  1  0
 18 19  1  0
 18 20  2  0
 20 21  1  0
 12 22  1  0
 22 23  1  0
 22 24  2  0
 10 25  1  0
 25 26  1  0
 25 27  2  0
  9  5  1  0
 17 13  1  0
  1 28  1  0
  1 29  1  0
  4 30  1  0
  4 31  1  0
 11 32  1  0
 11 33  1  0
 19 34  1  0
 19 35  1  0
 21 36  1  0
 21 37  1  0
M  CHG  4  22   1  23  -1  25   1  26  -1
M  END
$$$$
