
     RDKit          3D

 36 39  0  0  0  0  0  0  0  0999 V2000
   -1.2846    3.0087   -0.2363 O   0  0  0  0  0  1  0  0  0  0  0  0
   -1.8385    1.9420   -0.5008 N   0  0  0  0  0  4  0  0  0  0  0  0
   -2.7282    1.7767   -1.3374 O   0  0  0  0  0  0  0  0  0  0  0  0
   -1.5029    0.8506    0.2787 N   0  0  0  0  0  0  0  0  0  0  0  0
   -0.3898    1.0581    1.2331 C   0  0  0  0  0  0  0  0  0  0  0  0
    0.9856    1.3418    0.5715 C   0  0  0  0  0  0  0  0  0  0  0  0
    2.1142    0.7354    1.2915 N   0  0  0  0  0  0  0  0  0  0  0  0
    2.3284   -0.6084    1.1666 C   0  0  0  0  0  0  0  0  0  0  0  0
    2.0005   -1.5566    2.0529 N   0  0  0  0  0  0  0  0  0  0  0  0
    2.3933   -2.7595    1.4834 O   0  0  0  0  0  0  0  0  0  0  0  0
    2.9413   -2.5648    0.2204 N   0  0  0  0  0  0  0  0  0  0  0  0
    2.8957   -1.2442    0.0355 C   0  0  0  0  0  0  0  0  0  0  0  0
    3.4111   -0.5940   -1.2624 C   0  0  0  0  0  0  0  0  0  0  0  0
    3.3984    0.6864   -1.5645 N   0  0  0  0  0  0  0  0  0  0  0  0
    3.9390    0.7807   -2.8250 N   0  0  0  0  0  0  0  0  0  0  0  0
    4.2770   -0.4151   -3.2888 N   0  0  0  0  0  0  0  0  0  0  0  0
    3.9536   -1.2729   -2.3119 N   0  0  0  0  0  0  0  0  0  0  0  0
    2.4529    1.2832    2.5086 N   0  0  0  0  0  4  0  0  0  0  0  0
    3.4823    0.8668    3.0464 O   0  0  0  0  0  1  0  0  0  0  0  0
    1.7180    2.1784    2.9364 O   0  0  0  0  0  0  0  0  0  0  0  0
   -1.6003   -0.3784   -0.3273 C   0  0  0  0  0  0  0  0  0  0  0  0
   -0.5446   -1.1540   -0.6114 N   0  0  0  0  0  0  0  0  0  0  0  0
   -1.0555   -2.3237   -1.1407 O   0  0  0  0  0  0  0  0  0  0  0  0
   -2.4335   -2.3071   -1.1395 N   0  0  0  0  0  0  0  0  0  0  0  0
   -2.7819   -1.1182   -0.6385 C   0  0  0  0  0  0  0  0  0  0  0  0
   -4.2884   -0.7829   -0.4298 C   0  0  0  0  0  0  0  0  0  0  0  0
   -5.2845   -1.6174   -0.6561 N   0  0  0  0  0  0  0  0  0  0  0  0
   -6.4347   -0.9523   -0.3086 N   0  0  0  0  0  0  0  0  0  0  0  0
   -6.1627    0.2736    0.1121 N   0  0  0  0  0  0  0  0  0  0  0  0
   -4.8322    0.3843    0.0167 N   0  0  0  0  0  0  0  0  0  0  0  0
   -0.3326    0.1766    1.8856 H   0  0  0  0  0  0  0  0  0  0  0  0
   -0.6505    1.8806    1.9129 H   0  0  0  0  0  0  0  0  0  0  0  0
    0.9893    0.9935   -0.4673 H   0  0  0  0  0  0  0  0  0  0  0  0
    1.1434    2.4258    0.4923 H   0  0  0  0  0  0  0  0  0  0  0  0
    4.1190   -2.2657   -2.4254 H   0  0  0  0  0  0  0  0  0  0  0  0
   -4.3977    1.2718    0.2271 H   0  0  0  0  0  0  0  0  0  0  0  0
  1  2  1  0
  2  3  2  0
  2  4  1  0
  4  5  1  0
  5  6  1  0
  6  7  1  0
  7  8  1  0
  8  9  2  0
  9 10  1  0
 10 11  1  0
 11 12  2  0
 12 13  1  0
 13 14  2  0
 14 15  1  0
 15 16  2  0
 16 17  1  0
  7 18  1  0
 18 19  1  0
 18 20  2  0
  4 21  1  0
 21 22  2  0
 22 23  1  0
 23 24  1  0
 24 25  2  0
 25 26  1  0
 26 27  2  0
 27 28  1  0
 28 29  2  0
 29 30  1  0
 12  8  1  0
 17 13  1  0
 25 21  1  0
 30 26  1  0
  5 31  1  0
  5 32  1  0
  6 33  1  0
  6 34  1  0
 17 35  1  0
 30 36  1  0
M  CHG  4   1  -1   2   1  18   1  19  -1
M  END
$$$$
