
     RDKit          3D

 16 16  0  0  0  0  0  0  0  0999 V2000
    2.8569    0.0785    1.4258 O   0  0  0  0  0  1  0  0  0  0  0  0
    2.5073    0.5931    0.3570 N   0  0  0  0  0  4  0  0  0  0  0  0
    3.2359    1.1786   -0.4521 O   0  0  0  0  0  0  0  0  0  0  0  0
    1.1035    0.4963    0.0445 C   0  0  0  0  0  0  0  0  0  0  0  0
    0.4771    1.5827   -0.4629 N   0  0  0  0  0  0  0  0  0  0  0  0
   -0.7896    1.1660   -0.5548 N   0  0  0  0  0  0  0  0  0  0  0  0
   -1.6675    2.0252   -1.1568 O   0  0  0  0  0  0  0  0  0  0  0  0
   -0.9917   -0.0950   -0.1317 C   0  0  0  0  0  0  0  0  0  0  0  0
   -2.2452   -0.7079   -0.2189 N   0  0  0  0  0  4  0  0  0  0  0  0
   -3.1962   -0.1115    0.2890 O   0  0  0  0  0  1  0  0  0  0  0  0
   -2.2647   -1.8025   -0.7868 O   0  0  0  0  0  0  0  0  0  0  0  0
    0.2275   -0.5768    0.2639 C   0  0  0  0  0  0  0  0  0  0  0  0
    0.5219   -1.8645    0.7611 N   0  0  0  0  0  4  0  0  0  0  0  0
    1.5357   -2.4022    0.3110 O   0  0  0  0  0  1  0  0  0  0  0  0
   -0.2652   -2.3252    1.5908 O   0  0  0  0  0  0  0  0  0  0  0  0
   -1.0456    2.7653   -1.2791 H   0  0  0  0  0  0  0  0  0  0  0  0
  1  2  1  0
  2  3  2  0
  2  4  1  0
  4  5  2  0
  5  6  1  0
  6  7  1  0
  6  8  1  0
  8  9  1  0
  9 10  1  0
  9 11  2  0
  8 12  2  0
 12 13  1  0
 13 14  1  0
 13 15  2  0
 12  4  1  0
  7 16  1  0
M  CHG  6   1  -1   2   1   9   1  10  -1  13   1  14  -1
M  END
$$$$
