
     RDKit          3D

 60 66  0  0  0  0  0  0  0  0999 V2000
   -6.0089    7.0543   -2.2510 O   0  0  0  0  0  1  0  0  0  0  0  0
   -5.0055    7.2221   -1.5453 N   0  0  0  0  0  4  0  0  0  0  0  0
   -4.6539    8.3021   -1.0554 O   0  0  0  0  0  0  0  0  0  0  0  0
   -4.1666    6.0520   -1.2650 C   0  0  0  0  0  0  0  0  0  0  0  0
   -4.6646    4.7636   -1.5042 C   0  0  0  0  0  0  0  0  0  0  0  0
   -3.8618    3.6456   -1.2372 C   0  0  0  0  0  0  0  0  0  0  0  0
   -2.5519    3.8006   -0.7431 C   0  0  0  0  0  0  0  0  0  0  0  0
   -1.7574    2.6384   -0.5441 N   0  0  0  0  0  0  0  0  0  0  0  0
   -0.4134    2.6955   -0.2984 N   0  0  0  0  0  0  0  0  0  0  0  0
   -0.1094    1.4114   -0.1993 C   0  0  0  0  0  0  0  0  0  0  0  0
   -1.2332    0.6211   -0.4115 C   0  0  0  0  0  0  0  0  0  0  0  0
   -2.2935    1.3753   -0.6583 N   0  0  0  0  0  0  0  0  0  0  0  0
   -1.1263   -0.8080   -0.3502 C   0  0  0  0  0  0  0  0  0  0  0  0
   -2.0630   -1.7297   -0.5137 N   0  0  0  0  0  0  0  0  0  0  0  0
   -1.3516   -2.8802   -0.3107 N   0  0  0  0  0  0  0  0  0  0  0  0
   -1.9366   -4.1747   -0.3506 C   0  0  0  0  0  0  0  0  0  0  0  0
   -1.0892   -5.2981   -0.2652 C   0  0  0  0  0  0  0  0  0  0  0  0
   -1.6078   -6.5984   -0.3176 C   0  0  0  0  0  0  0  0  0  0  0  0
   -2.9895   -6.7917   -0.4432 C   0  0  0  0  0  0  0  0  0  0  0  0
   -3.5304   -8.1576   -0.4996 N   0  0  0  0  0  4  0  0  0  0  0  0
   -4.7615   -8.2862   -0.4717 O   0  0  0  0  0  1  0  0  0  0  0  0
   -2.7220   -9.0921   -0.5780 O   0  0  0  0  0  0  0  0  0  0  0  0
   -3.8552   -5.6948   -0.5160 C   0  0  0  0  0  0  0  0  0  0  0  0
   -3.3162   -4.3969   -0.4704 C   0  0  0  0  0  0  0  0  0  0  0  0
   -4.2789   -3.3120   -0.5201 N   0  0  0  0  0  4  0  0  0  0  0  0
   -4.6980   -2.9935   -1.6403 O   0  0  0  0  0  1  0  0  0  0  0  0
   -4.6574   -2.8602    0.5679 O   0  0  0  0  0  0  0  0  0  0  0  0
   -0.0050   -2.7188   -0.0784 N   0  0  0  0  0  0  0  0  0  0  0  0
    0.1020   -1.3997   -0.0829 C   0  0  0  0  0  0  0  0  0  0  0  0
    1.2577   -0.5843    0.1421 C   0  0  0  0  0  0  0  0  0  0  0  0
    2.5001   -0.9506    0.4144 N   0  0  0  0  0  0  0  0  0  0  0  0
    3.1119    0.2652    0.5615 N   0  0  0  0  0  0  0  0  0  0  0  0
    4.4950    0.3901    0.8551 C   0  0  0  0  0  0  0  0  0  0  0  0
    5.1273    1.6258    0.6107 C   0  0  0  0  0  0  0  0  0  0  0  0
    6.5089    1.7655    0.7902 C   0  0  0  0  0  0  0  0  0  0  0  0
    7.2604    0.6751    1.2384 C   0  0  0  0  0  0  0  0  0  0  0  0
    8.7043    0.8241    1.4248 N   0  0  0  0  0  4  0  0  0  0  0  0
    9.2359    0.1271    2.3008 O   0  0  0  0  0  1  0  0  0  0  0  0
    9.2937    1.6313    0.6910 O   0  0  0  0  0  0  0  0  0  0  0  0
    6.6530   -0.5502    1.5313 C   0  0  0  0  0  0  0  0  0  0  0  0
    5.2678   -0.6771    1.3424 C   0  0  0  0  0  0  0  0  0  0  0  0
    4.6666   -1.9095    1.8300 N   0  0  0  0  0  4  0  0  0  0  0  0
    3.9086   -1.8030    2.8047 O   0  0  0  0  0  1  0  0  0  0  0  0
    5.0356   -2.9654    1.2950 O   0  0  0  0  0  0  0  0  0  0  0  0
    2.3319    1.3665    0.2992 N   0  0  0  0  0  0  0  0  0  0  0  0
    1.1552    0.8000    0.0806 C   0  0  0  0  0  0  0  0  0  0  0  0
   -2.0848    5.1024   -0.4963 C   0  0  0  0  0  0  0  0  0  0  0  0
   -0.7956    5.3638    0.1168 N   0  0  0  0  0  4  0  0  0  0  0  0
   -0.7124    5.1646    1.3363 O   0  0  0  0  0  1  0  0  0  0  0  0
    0.0787    5.8375   -0.6178 O   0  0  0  0  0  0  0  0  0  0  0  0
   -2.8776    6.2335   -0.7537 C   0  0  0  0  0  0  0  0  0  0  0  0
   -5.6668    4.6148   -1.9105 H   0  0  0  0  0  0  0  0  0  0  0  0
   -4.2734    2.6544   -1.4448 H   0  0  0  0  0  0  0  0  0  0  0  0
   -0.0059   -5.1817   -0.1720 H   0  0  0  0  0  0  0  0  0  0  0  0
   -0.9211   -7.4435   -0.2565 H   0  0  0  0  0  0  0  0  0  0  0  0
   -4.9342   -5.8314   -0.6020 H   0  0  0  0  0  0  0  0  0  0  0  0
    4.5602    2.4903    0.2587 H   0  0  0  0  0  0  0  0  0  0  0  0
    6.9800    2.7259    0.5778 H   0  0  0  0  0  0  0  0  0  0  0  0
    7.2360   -1.3832    1.9242 H   0  0  0  0  0  0  0  0  0  0  0  0
   -2.4904    7.2327   -0.5512 H   0  0  0  0  0  0  0  0  0  0  0  0
  1  2  1  0
  2  3  2  0
  2  4  1  0
  4  5  2  0
  5  6  1  0
  6  7  2  0
  7  8  1  0
  8  9  1  0
  9 10  2  0
 10 11  1  0
 11 12  2  0
 11 13  1  0
 13 14  2  0
 14 15  1  0
 15 16  1  0
 16 17  2  0
 17 18  1  0
 18 19  2  0
 19 20  1  0
 20 21  1  0
 20 22  2  0
 19 23  1  0
 23 24  2  0
 24 25  1  0
 25 26  1  0
 25 27  2  0
 15 28  1  0
 28 29  2  0
 29 30  1  0
 30 31  2  0
 31 32  1  0
 32 33  1  0
 33 34  2  0
 34 35  1  0
 35 36  2  0
 36 37  1  0
 37 38  1  0
 37 39  2  0
 36 40  1  0
 40 41  2  0
 41 42  1  0
 42 43  1  0
 42 44  2  0
 32 45  1  0
 45 46  2  0
  7 47  1  0
 47 48  1  0
 48 49  1  0
 48 50  2  0
 47 51  2  0
 12  8  1  0
 24 16  1  0
 29 13  1  0
 41 33  1  0
 46 10  1  0
 46 30  1  0
 51  4  1  0
  5 52  1  0
  6 53  1  0
 17 54  1  0
 18 55  1  0
 23 56  1  0
 34 57  1  0
 35 58  1  0
 40 59  1  0
 51 60  1  0
M  CHG  8   1  -1   2   1  20   1  21  -1  25   1  26  -1  37   1  38  -1
M  CHG  4  42   1  43  -1  48   1  49  -1
M  END
$$$$
