
     RDKit          3D

 18 21  0  0  0  0  0  0  0  0999 V2000
    2.5975   -1.9537   -0.0636 N   0  0  0  0  0  0  0  0  0  0  0  0
    1.3182   -2.3723   -0.0623 N   0  0  0  0  0  0  0  0  0  0  0  0
    0.5630   -1.2496   -0.0317 C   0  0  0  0  0  0  0  0  0  0  0  0
    1.3584   -0.1305   -0.0139 C   0  0  0  0  0  0  0  0  0  0  0  0
    2.6088   -0.5853   -0.0340 N   0  0  0  0  0  0  0  0  0  0  0  0
    0.8010    1.1125    0.0177 C   0  0  0  0  0  0  0  0  0  0  0  0
    1.3959    2.3279    0.0392 N   0  0  0  0  0  0  0  0  0  0  0  0
    0.3939    3.2262    0.0669 N   0  0  0  0  0  0  0  0  0  0  0  0
   -0.7970    2.5516    0.0620 N   0  0  0  0  0  0  0  0  0  0  0  0
   -0.5660    1.2414    0.0316 C   0  0  0  0  0  0  0  0  0  0  0  0
   -1.3640    0.1371    0.0141 C   0  0  0  0  0  0  0  0  0  0  0  0
   -2.7142    0.0444    0.0231 N   0  0  0  0  0  0  0  0  0  0  0  0
   -2.9915   -1.2725   -0.0033 N   0  0  0  0  0  0  0  0  0  0  0  0
   -1.8118   -1.9663   -0.0280 N   0  0  0  0  0  0  0  0  0  0  0  0
   -0.7924   -1.1109   -0.0177 C   0  0  0  0  0  0  0  0  0  0  0  0
    3.4973   -0.0957   -0.0305 H   0  0  0  0  0  0  0  0  0  0  0  0
   -1.6652    3.0760    0.0804 H   0  0  0  0  0  0  0  0  0  0  0  0
   -1.8321   -2.9803   -0.0499 H   0  0  0  0  0  0  0  0  0  0  0  0
  1  2  2  0
  2  3  1  0
  3  4  2  0
  4  5  1  0
  4  6  1  0
  6  7  1  0
  7  8  2  0
  8  9  1  0
  9 10  1  0
 10 11  1  0
 11 12  1  0
 12 13  2  0
 13 14  1  0
 14 15  1  0
  5  1  1  0
 10  6  2  0
 15  3  1  0
 15 11  2  0
  5 16  1  0
  9 17  1  0
 14 18  1  0
M  END
$$$$
