
     RDKit          3D

 22 25  0  0  0  0  0  0  0  0999 V2000
   -5.0068   -0.8287   -0.9537 O   0  0  0  0  0  1  0  0  0  0  0  0
   -4.0312   -1.5860   -0.9309 N   0  0  0  0  0  4  0  0  0  0  0  0
   -3.9478   -2.8017   -1.1333 O   0  0  0  0  0  0  0  0  0  0  0  0
   -2.7532   -0.9300   -0.6086 N   0  0  0  0  0  0  0  0  0  0  0  0
   -2.6860    0.4242   -0.3574 N   0  0  0  0  0  0  0  0  0  0  0  0
   -1.3866    0.5537   -0.1251 C   0  0  0  0  0  0  0  0  0  0  0  0
   -0.6407    1.7332    0.2045 C   0  0  0  0  0  0  0  0  0  0  0  0
   -1.0680    2.9787    0.3567 N   0  0  0  0  0  0  0  0  0  0  0  0
    0.1029    3.6044    0.6565 N   0  0  0  0  0  0  0  0  0  0  0  0
    1.2345    2.8496    0.7047 N   0  0  0  0  0  0  0  0  0  0  0  0
    0.7375    1.6560    0.4128 C   0  0  0  0  0  0  0  0  0  0  0  0
    1.4138    0.3967    0.2982 C   0  0  0  0  0  0  0  0  0  0  0  0
    2.7016    0.1221    0.4569 N   0  0  0  0  0  0  0  0  0  0  0  0
    2.6914   -1.2352    0.2143 N   0  0  0  0  0  0  0  0  0  0  0  0
    3.9279   -2.0323    0.2720 N   0  0  0  0  0  4  0  0  0  0  0  0
    3.7754   -3.2347    0.0339 O   0  0  0  0  0  1  0  0  0  0  0  0
    4.9435   -1.3867    0.5502 O   0  0  0  0  0  0  0  0  0  0  0  0
    1.4760   -1.8174   -0.0849 N   0  0  0  0  0  0  0  0  0  0  0  0
    0.6882   -0.7529   -0.0228 C   0  0  0  0  0  0  0  0  0  0  0  0
   -0.7289   -0.6735   -0.2370 C   0  0  0  0  0  0  0  0  0  0  0  0
   -1.5749   -1.6464   -0.5460 N   0  0  0  0  0  0  0  0  0  0  0  0
    0.1315    4.6068    0.8390 H   0  0  0  0  0  0  0  0  0  0  0  0
  1  2  1  0
  2  3  2  0
  2  4  1  0
  4  5  1  0
  5  6  2  0
  6  7  1  0
  7  8  2  0
  8  9  1  0
  9 10  1  0
 10 11  2  0
 11 12  1  0
 12 13  2  0
 13 14  1  0
 14 15  1  0
 15 16  1  0
 15 17  2  0
 14 18  1  0
 18 19  2  0
 19 20  1  0
 20 21  2  0
 11  7  1  0
 19 12  1  0
 20  6  1  0
 21  4  1  0
  9 22  1  0
M  CHG  4   1  -1   2   1  15   1  16  -1
M  END
$$$$
