
     RDKit          3D

 18 18  0  0  0  0  0  0  0  0999 V2000
   -2.5867    0.1520   -0.4248 C   0  0  0  0  0  0  0  0  0  0  0  0
   -1.1797    0.2474   -0.0962 N   0  0  0  0  0  0  0  0  0  0  0  0
   -0.6039    1.4749   -0.0904 N   0  0  0  0  0  0  0  0  0  0  0  0
    0.6847    1.2278    0.2233 C   0  0  0  0  0  0  0  0  0  0  0  0
    1.5978    2.3483    0.3342 N   0  0  0  0  0  4  0  0  0  0  0  0
    2.8061    2.0830    0.2609 O   0  0  0  0  0  1  0  0  0  0  0  0
    1.1214    3.4806    0.4938 O   0  0  0  0  0  0  0  0  0  0  0  0
    0.9336   -0.1540    0.3807 C   0  0  0  0  0  0  0  0  0  0  0  0
    2.1247   -0.7824    0.7597 N   0  0  0  0  0  0  0  0  0  0  0  0
    2.8818   -1.0431   -0.1992 N   0  0  0  0  0  4  0  0  0  0  0  0
    3.5640   -1.2782   -1.0816 N   0  0  0  0  0  2  0  0  0  0  0  0
   -0.2893   -0.7475    0.1914 C   0  0  0  0  0  0  0  0  0  0  0  0
   -0.6582   -2.1128    0.2473 N   0  0  0  0  0  4  0  0  0  0  0  0
   -1.7969   -2.3727    0.6482 O   0  0  0  0  0  1  0  0  0  0  0  0
    0.1890   -2.9290   -0.1256 O   0  0  0  0  0  0  0  0  0  0  0  0
   -2.9204    1.1002   -0.8558 H   0  0  0  0  0  0  0  0  0  0  0  0
   -2.7271   -0.6436   -1.1603 H   0  0  0  0  0  0  0  0  0  0  0  0
   -3.1410   -0.0508    0.4943 H   0  0  0  0  0  0  0  0  0  0  0  0
  1  2  1  0
  2  3  1  0
  3  4  2  0
  4  5  1  0
  5  6  1  0
  5  7  2  0
  4  8  1  0
  8  9  1  0
  9 10  2  0
 10 11  2  0
  8 12  2  0
 12 13  1  0
 13 14  1  0
 13 15  2  0
 12  2  1  0
  1 16  1  0
  1 17  1  0
  1 18  1  0
M  CHG  6   5   1   6  -1  10   1  11  -1  13   1  14  -1
M  END
$$$$
