
     RDKit          3D

 17 18  0  0  0  0  0  0  0  0999 V2000
   -2.3030   -0.9804   -0.1342 C   0  0  0  0  0  0  0  0  0  0  0  0
   -0.9007   -0.6466   -0.0713 N   0  0  0  0  0  0  0  0  0  0  0  0
    0.0650   -1.6278   -0.1149 N   0  0  0  0  0  0  0  0  0  0  0  0
    1.1918   -0.8599   -0.0286 C   0  0  0  0  0  0  0  0  0  0  0  0
    2.4987   -1.4835   -0.0370 N   0  0  0  0  0  4  0  0  0  0  0  0
    2.5754   -2.7154   -0.1232 O   0  0  0  0  0  1  0  0  0  0  0  0
    3.4614   -0.7035    0.0456 O   0  0  0  0  0  0  0  0  0  0  0  0
    0.9296    0.5283    0.0637 C   0  0  0  0  0  0  0  0  0  0  0  0
    1.2718    1.8528    0.1681 N   0  0  0  0  0  0  0  0  0  0  0  0
    0.2228    2.7678    0.2045 N   0  0  0  0  0  0  0  0  0  0  0  0
   -0.8410    1.9729    0.1181 N   0  0  0  0  0  4  0  0  0  0  0  0
   -2.0539    2.2650    0.1053 O   0  0  0  0  0  1  0  0  0  0  0  0
   -0.4111    0.6137    0.0326 C   0  0  0  0  0  0  0  0  0  0  0  0
   -2.7350   -0.4965   -1.0136 H   0  0  0  0  0  0  0  0  0  0  0  0
   -2.7847   -0.6250    0.7800 H   0  0  0  0  0  0  0  0  0  0  0  0
   -2.4129   -2.0648   -0.2149 H   0  0  0  0  0  0  0  0  0  0  0  0
    2.2258    2.2028    0.2196 H   0  0  0  0  0  0  0  0  0  0  0  0
  1  2  1  0
  2  3  1  0
  3  4  2  0
  4  5  1  0
  5  6  1  0
  5  7  2  0
  4  8  1  0
  8  9  1  0
  9 10  1  0
 10 11  2  0
 11 12  1  0
 11 13  1  0
 13  8  2  0
 13  2  1  0
  1 14  1  0
  1 15  1  0
  1 16  1  0
  9 17  1  0
M  CHG  4   5   1   6  -1  11   1  12  -1
M  END
$$$$
