
     RDKit          3D

 18 18  0  0  0  0  0  0  0  0999 V2000
    2.5031   -0.4052    0.5593 C   0  0  0  0  0  0  0  0  0  0  0  0
    1.0820   -0.3515    0.2856 N   0  0  0  0  0  0  0  0  0  0  0  0
    0.3753   -1.5107    0.2805 N   0  0  0  0  0  0  0  0  0  0  0  0
   -0.8750   -1.1195   -0.0441 C   0  0  0  0  0  0  0  0  0  0  0  0
   -1.9246   -2.1084   -0.0714 N   0  0  0  0  0  4  0  0  0  0  0  0
   -1.6671   -3.2116   -0.5684 O   0  0  0  0  0  1  0  0  0  0  0  0
   -3.0090   -1.7572    0.4110 O   0  0  0  0  0  0  0  0  0  0  0  0
   -0.9711    0.2625   -0.2322 C   0  0  0  0  0  0  0  0  0  0  0  0
   -2.1175    1.0156   -0.5695 N   0  0  0  0  0  4  0  0  0  0  0  0
   -2.3387    2.0160    0.1182 O   0  0  0  0  0  1  0  0  0  0  0  0
   -2.7842    0.5975   -1.5192 O   0  0  0  0  0  0  0  0  0  0  0  0
    0.3023    0.7271   -0.0174 C   0  0  0  0  0  0  0  0  0  0  0  0
    0.8190    2.0359   -0.1316 N   0  0  0  0  0  4  0  0  0  0  0  0
    1.6634    2.3767    0.7001 O   0  0  0  0  0  1  0  0  0  0  0  0
    0.3967    2.7037   -1.0772 O   0  0  0  0  0  0  0  0  0  0  0  0
    2.6727   -0.0139    1.5650 H   0  0  0  0  0  0  0  0  0  0  0  0
    3.0317    0.1864   -0.1918 H   0  0  0  0  0  0  0  0  0  0  0  0
    2.8410   -1.4436    0.5031 H   0  0  0  0  0  0  0  0  0  0  0  0
  1  2  1  0
  2  3  1  0
  3  4  2  0
  4  5  1  0
  5  6  1  0
  5  7  2  0
  4  8  1  0
  8  9  1  0
  9 10  1  0
  9 11  2  0
  8 12  2  0
 12 13  1  0
 13 14  1  0
 13 15  2  0
 12  2  1  0
  1 16  1  0
  1 17  1  0
  1 18  1  0
M  CHG  6   5   1   6  -1   9   1  10  -1  13   1  14  -1
M  END
$$$$
