
     RDKit          3D

 21 21  0  0  0  0  0  0  0  0999 V2000
   -2.6025    1.9750    1.0170 O   0  0  0  0  0  1  0  0  0  0  0  0
   -1.6899    1.2499    1.4366 N   0  0  0  0  0  4  0  0  0  0  0  0
   -1.0919    1.4498    2.5067 O   0  0  0  0  0  0  0  0  0  0  0  0
   -1.2387    0.0904    0.6297 C   0  0  0  0  0  0  0  0  0  0  0  0
    0.2912    0.0424    0.6283 C   0  0  0  0  0  0  0  0  0  0  0  0
    0.8921   -0.9318   -0.3223 N   0  0  0  0  0  0  0  0  0  0  0  0
    1.9103   -0.5096   -1.1190 C   0  0  0  0  0  0  0  0  0  0  0  0
    3.1353   -0.9718   -1.1843 N   0  0  0  0  0  0  0  0  0  0  0  0
    3.7760   -0.2262   -2.1467 N   0  0  0  0  0  0  0  0  0  0  0  0
    2.9534    0.6612   -2.6890 N   0  0  0  0  0  0  0  0  0  0  0  0
    1.7800    0.4671   -2.0736 N   0  0  0  0  0  0  0  0  0  0  0  0
   -1.8551   -1.1022    1.2484 N   0  0  0  0  0  4  0  0  0  0  0  0
   -1.1625   -2.1288    1.3375 O   0  0  0  0  0  1  0  0  0  0  0  0
   -3.0152   -1.0254    1.6806 O   0  0  0  0  0  0  0  0  0  0  0  0
   -1.7409    0.2637   -0.7500 N   0  0  0  0  0  4  0  0  0  0  0  0
   -1.1460    1.0964   -1.4634 O   0  0  0  0  0  1  0  0  0  0  0  0
   -2.6796   -0.4333   -1.1585 O   0  0  0  0  0  0  0  0  0  0  0  0
    0.6926    1.0455    0.4175 H   0  0  0  0  0  0  0  0  0  0  0  0
    0.6761   -0.2076    1.6275 H   0  0  0  0  0  0  0  0  0  0  0  0
    1.1524   -1.8001    0.1657 H   0  0  0  0  0  0  0  0  0  0  0  0
    0.9631    0.9955   -2.3558 H   0  0  0  0  0  0  0  0  0  0  0  0
  1  2  1  0
  2  3  2  0
  2  4  1  0
  4  5  1  0
  5  6  1  0
  6  7  1  0
  7  8  2  0
  8  9  1  0
  9 10  2  0
 10 11  1  0
  4 12  1  0
 12 13  1  0
 12 14  2  0
  4 15  1  0
 15 16  1  0
 15 17  2  0
 11  7  1  0
  5 18  1  0
  5 19  1  0
  6 20  1  0
 11 21  1  0
M  CHG  6   1  -1   2   1  12   1  13  -1  15   1  16  -1
M  END
$$$$
