
     RDKit          3D

 15 15  0  0  0  0  0  0  0  0999 V2000
   -2.2858    0.2609   -0.6882 N   0  0  0  0  0  0  0  0  0  0  0  0
   -0.9690    0.5048   -0.2111 N   0  0  0  0  0  0  0  0  0  0  0  0
   -0.5228    1.7277    0.2324 C   0  0  0  0  0  0  0  0  0  0  0  0
    0.7378    1.6871    0.6173 N   0  0  0  0  0  0  0  0  0  0  0  0
    1.1274    0.3799    0.3805 C   0  0  0  0  0  0  0  0  0  0  0  0
    2.4401   -0.0752    0.7381 N   0  0  0  0  0  4  0  0  0  0  0  0
    3.3889    0.6757    0.4855 O   0  0  0  0  0  1  0  0  0  0  0  0
    2.5043   -1.1810    1.2908 O   0  0  0  0  0  0  0  0  0  0  0  0
    0.0918   -0.3475   -0.1391 C   0  0  0  0  0  0  0  0  0  0  0  0
    0.0546   -1.6779   -0.5820 N   0  0  0  0  0  4  0  0  0  0  0  0
   -0.9983   -2.2989   -0.3963 O   0  0  0  0  0  1  0  0  0  0  0  0
    1.0668   -2.0991   -1.1466 O   0  0  0  0  0  0  0  0  0  0  0  0
   -2.4772   -0.7407   -0.8004 H   0  0  0  0  0  0  0  0  0  0  0  0
   -2.9972    0.5818   -0.0301 H   0  0  0  0  0  0  0  0  0  0  0  0
   -1.1614    2.6022    0.2492 H   0  0  0  0  0  0  0  0  0  0  0  0
  1  2  1  0
  2  3  1  0
  3  4  2  0
  4  5  1  0
  5  6  1  0
  6  7  1  0
  6  8  2  0
  5  9  2  0
  9 10  1  0
 10 11  1  0
 10 12  2  0
  9  2  1  0
  1 13  1  0
  1 14  1  0
  3 15  1  0
M  CHG  4   6   1   7  -1  10   1  11  -1
M  END
$$$$
