
     RDKit          3D

 13 13  0  0  0  0  0  0  0  0999 V2000
   -2.3775   -0.2204    0.2389 N   0  0  0  0  0  0  0  0  0  0  0  0
   -1.0345    0.1522    0.0671 N   0  0  0  0  0  0  0  0  0  0  0  0
   -0.5712    1.4168   -0.1609 C   0  0  0  0  0  0  0  0  0  0  0  0
    0.7406    1.4378   -0.2777 N   0  0  0  0  0  0  0  0  0  0  0  0
    1.1209    0.1187   -0.1148 C   0  0  0  0  0  0  0  0  0  0  0  0
    2.5091   -0.2802   -0.1759 N   0  0  0  0  0  4  0  0  0  0  0  0
    3.3564    0.5983   -0.3799 O   0  0  0  0  0  1  0  0  0  0  0  0
    2.7435   -1.4878   -0.0169 O   0  0  0  0  0  0  0  0  0  0  0  0
    0.0263   -0.6962    0.1011 C   0  0  0  0  0  0  0  0  0  0  0  0
   -2.5397   -0.6559    1.1452 H   0  0  0  0  0  0  0  0  0  0  0  0
   -2.6791   -0.8947   -0.4625 H   0  0  0  0  0  0  0  0  0  0  0  0
   -1.2313    2.2712   -0.2306 H   0  0  0  0  0  0  0  0  0  0  0  0
   -0.0634   -1.7599    0.2669 H   0  0  0  0  0  0  0  0  0  0  0  0
  1  2  1  0
  2  3  1  0
  3  4  2  0
  4  5  1  0
  5  6  1  0
  6  7  1  0
  6  8  2  0
  5  9  2  0
  9  2  1  0
  1 10  1  0
  1 11  1  0
  3 12  1  0
  9 13  1  0
M  CHG  2   6   1   7  -1
M  END
$$$$
