
     RDKit          3D

 15 15  0  0  0  0  0  0  0  0999 V2000
    1.0254    2.6442    1.7238 N   0  0  0  0  0  2  0  0  0  0  0  0
    0.3681    1.7177    1.6278 N   0  0  0  0  0  4  0  0  0  0  0  0
   -0.3759    0.7209    1.5064 N   0  0  0  0  0  0  0  0  0  0  0  0
   -0.1065    0.0162    0.3698 C   0  0  0  0  0  0  0  0  0  0  0  0
    0.9401   -0.7677   -0.1096 C   0  0  0  0  0  0  0  0  0  0  0  0
    2.1876   -1.0809    0.5488 N   0  0  0  0  0  4  0  0  0  0  0  0
    2.3867   -0.5555    1.6531 O   0  0  0  0  0  1  0  0  0  0  0  0
    2.9697   -1.8430   -0.0335 O   0  0  0  0  0  0  0  0  0  0  0  0
    0.6714   -1.2781   -1.3697 N   0  0  0  0  0  0  0  0  0  0  0  0
   -0.5363   -0.8433   -1.6509 C   0  0  0  0  0  0  0  0  0  0  0  0
   -1.0434   -0.0786   -0.6411 N   0  0  0  0  0  0  0  0  0  0  0  0
   -2.3275    0.5265   -0.6359 N   0  0  0  0  0  0  0  0  0  0  0  0
   -1.0931   -1.0485   -2.5559 H   0  0  0  0  0  0  0  0  0  0  0  0
   -2.8104    0.3278    0.2413 H   0  0  0  0  0  0  0  0  0  0  0  0
   -2.2559    1.5423   -0.6745 H   0  0  0  0  0  0  0  0  0  0  0  0
  1  2  2  0
  2  3  2  0
  3  4  1  0
  4  5  2  0
  5  6  1  0
  6  7  1  0
  6  8  2  0
  5  9  1  0
  9 10  2  0
 10 11  1  0
 11 12  1  0
 11  4  1  0
 10 13  1  0
 12 14  1  0
 12 15  1  0
M  CHG  4   1  -1   2   1   6   1   7  -1
M  END
$$$$
