
     RDKit          3D

 25 25  0  0  0  0  0  0  0  0999 V2000
    4.8774   -1.3870    0.7748 O   0  0  0  0  0  1  0  0  0  0  0  0
    4.6019   -1.2783   -0.4294 N   0  0  0  0  0  4  0  0  0  0  0  0
    5.3182   -1.6394   -1.3709 O   0  0  0  0  0  0  0  0  0  0  0  0
    3.3239   -0.6785   -0.7424 C   0  0  0  0  0  0  0  0  0  0  0  0
    2.3832   -0.2009    0.1502 C   0  0  0  0  0  0  0  0  0  0  0  0
    1.3682    0.2468   -0.6377 N   0  0  0  0  0  0  0  0  0  0  0  0
    0.1628    0.8470   -0.1750 N   0  0  0  0  0  0  0  0  0  0  0  0
   -0.8468   -0.1817    0.2036 C   0  0  0  0  0  0  0  0  0  0  0  0
   -2.2744    0.3070    0.5377 C   0  0  0  0  0  0  0  0  0  0  0  0
   -2.3213    1.0893    1.7962 N   0  0  0  0  0  4  0  0  0  0  0  0
   -3.3918    1.1881    2.4133 O   0  0  0  0  0  1  0  0  0  0  0  0
   -1.2573    1.5984    2.1908 O   0  0  0  0  0  0  0  0  0  0  0  0
   -3.1802   -0.8527    0.7441 N   0  0  0  0  0  4  0  0  0  0  0  0
   -2.6870   -1.8564    1.2851 O   0  0  0  0  0  1  0  0  0  0  0  0
   -4.3639   -0.7813    0.3842 O   0  0  0  0  0  0  0  0  0  0  0  0
   -2.8113    1.1192   -0.5750 N   0  0  0  0  0  4  0  0  0  0  0  0
   -3.1712    2.2860   -0.3614 O   0  0  0  0  0  1  0  0  0  0  0  0
   -2.8100    0.5970   -1.7030 O   0  0  0  0  0  0  0  0  0  0  0  0
    1.7222    0.0598   -1.9453 C   0  0  0  0  0  0  0  0  0  0  0  0
    2.8997   -0.5194   -2.0480 N   0  0  0  0  0  0  0  0  0  0  0  0
    2.3710   -0.1531    1.2298 H   0  0  0  0  0  0  0  0  0  0  0  0
    0.3486    1.4752    0.6174 H   0  0  0  0  0  0  0  0  0  0  0  0
   -0.9112   -0.9015   -0.6263 H   0  0  0  0  0  0  0  0  0  0  0  0
   -0.4381   -0.7430    1.0565 H   0  0  0  0  0  0  0  0  0  0  0  0
    1.0874    0.3598   -2.7693 H   0  0  0  0  0  0  0  0  0  0  0  0
  1  2  1  0
  2  3  2  0
  2  4  1  0
  4  5  2  0
  5  6  1  0
  6  7  1  0
  7  8  1  0
  8  9  1  0
  9 10  1  0
 10 11  1  0
 10 12  2  0
  9 13  1  0
 13 14  1  0
 13 15  2  0
  9 16  1  0
 16 17  1  0
 16 18  2  0
  6 19  1  0
 19 20  2  0
 20  4  1  0
  5 21  1  0
  7 22  1  0
  8 23  1  0
  8 24  1  0
 19 25  1  0
M  CHG  8   1  -1   2   1  10   1  11  -1  13   1  14  -1  16   1  17  -1
M  END
$$$$
