
     RDKit          3D

 34 35  0  0  0  0  0  0  0  0999 V2000
   -5.2830   -0.7639   -0.3962 N   0  0  0  0  0  0  0  0  0  0  0  0
   -4.0239   -0.2767   -0.3571 C   0  0  0  0  0  0  0  0  0  0  0  0
   -3.5113    0.9195   -0.9225 C   0  0  0  0  0  0  0  0  0  0  0  0
   -4.1949    1.9303   -1.7129 N   0  0  0  0  0  4  0  0  0  0  0  0
   -5.3802    1.7005   -2.0019 O   0  0  0  0  0  1  0  0  0  0  0  0
   -3.5612    2.9413   -2.0500 O   0  0  0  0  0  0  0  0  0  0  0  0
   -2.1979    1.0813   -0.6679 N   0  0  0  0  0  0  0  0  0  0  0  0
   -1.8652   -0.0136    0.0582 N   0  0  0  0  0  0  0  0  0  0  0  0
   -0.4780   -0.1762    0.4740 C   0  0  0  0  0  0  0  0  0  0  0  0
    0.4943    0.8041   -0.1773 C   0  0  0  0  0  0  0  0  0  0  0  0
    1.8724    0.5093    0.1880 N   0  0  0  0  0  0  0  0  0  0  0  0
    2.3313    1.0310    1.3505 N   0  0  0  0  0  0  0  0  0  0  0  0
    3.6340    0.6836    1.3695 C   0  0  0  0  0  0  0  0  0  0  0  0
    4.4547    1.1173    2.4881 N   0  0  0  0  0  4  0  0  0  0  0  0
    3.8978    1.6610    3.4527 O   0  0  0  0  0  1  0  0  0  0  0  0
    5.6746    0.9062    2.3926 O   0  0  0  0  0  0  0  0  0  0  0  0
    4.0024   -0.0814    0.2304 C   0  0  0  0  0  0  0  0  0  0  0  0
    5.2025   -0.6156   -0.0871 N   0  0  0  0  0  0  0  0  0  0  0  0
    2.8335   -0.1916   -0.4864 C   0  0  0  0  0  0  0  0  0  0  0  0
    2.5743   -0.8836   -1.6985 N   0  0  0  0  0  4  0  0  0  0  0  0
    1.4313   -1.3278   -1.8578 O   0  0  0  0  0  1  0  0  0  0  0  0
    3.5167   -0.9984   -2.4893 O   0  0  0  0  0  0  0  0  0  0  0  0
   -2.9372   -0.8417    0.2722 C   0  0  0  0  0  0  0  0  0  0  0  0
   -2.8508   -2.0513    1.0187 N   0  0  0  0  0  4  0  0  0  0  0  0
   -1.8983   -2.1763    1.7952 O   0  0  0  0  0  1  0  0  0  0  0  0
   -3.7437   -2.8863    0.8327 O   0  0  0  0  0  0  0  0  0  0  0  0
   -5.5037   -1.7184   -0.1014 H   0  0  0  0  0  0  0  0  0  0  0  0
   -6.0054   -0.3523   -0.9923 H   0  0  0  0  0  0  0  0  0  0  0  0
   -0.1903   -1.2047    0.2320 H   0  0  0  0  0  0  0  0  0  0  0  0
   -0.4602   -0.0508    1.5628 H   0  0  0  0  0  0  0  0  0  0  0  0
    0.2908    1.8308    0.1542 H   0  0  0  0  0  0  0  0  0  0  0  0
    0.4193    0.8141   -1.2693 H   0  0  0  0  0  0  0  0  0  0  0  0
    5.4041   -0.9626   -1.0280 H   0  0  0  0  0  0  0  0  0  0  0  0
    6.0511   -0.3573    0.4239 H   0  0  0  0  0  0  0  0  0  0  0  0
  1  2  1  0
  2  3  1  0
  3  4  1  0
  4  5  1  0
  4  6  2  0
  3  7  2  0
  7  8  1  0
  8  9  1  0
  9 10  1  0
 10 11  1  0
 11 12  1  0
 12 13  2  0
 13 14  1  0
 14 15  1  0
 14 16  2  0
 13 17  1  0
 17 18  1  0
 17 19  2  0
 19 20  1  0
 20 21  1  0
 20 22  2  0
  8 23  1  0
 23 24  1  0
 24 25  1  0
 24 26  2  0
 19 11  1  0
 23  2  2  0
  1 27  1  0
  1 28  1  0
  9 29  1  0
  9 30  1  0
 10 31  1  0
 10 32  1  0
 18 33  1  0
 18 34  1  0
M  CHG  8   4   1   5  -1  14   1  15  -1  20   1  21  -1  24   1  25  -1
M  END
$$$$
