
     RDKit          3D

 34 35  0  0  0  0  0  0  0  0999 V2000
    6.6536    0.6824   -1.3925 N   0  0  0  0  0  2  0  0  0  0  0  0
    5.8888    1.0125   -0.6147 N   0  0  0  0  0  4  0  0  0  0  0  0
    5.0400    1.3656    0.2316 N   0  0  0  0  0  0  0  0  0  0  0  0
    3.9296    0.5185    0.3024 C   0  0  0  0  0  0  0  0  0  0  0  0
    3.7634   -0.6475    1.0830 C   0  0  0  0  0  0  0  0  0  0  0  0
    4.7103   -1.3217    1.9498 N   0  0  0  0  0  4  0  0  0  0  0  0
    5.9058   -1.0465    1.7782 O   0  0  0  0  0  1  0  0  0  0  0  0
    4.2691   -2.1139    2.7936 O   0  0  0  0  0  0  0  0  0  0  0  0
    2.5214   -1.1623    0.9594 N   0  0  0  0  0  0  0  0  0  0  0  0
    1.8989   -0.3161    0.1039 N   0  0  0  0  0  0  0  0  0  0  0  0
    0.5353   -0.6378   -0.2928 C   0  0  0  0  0  0  0  0  0  0  0  0
   -0.4778   -0.1470    0.7386 C   0  0  0  0  0  0  0  0  0  0  0  0
   -1.8688   -0.3083    0.3350 N   0  0  0  0  0  0  0  0  0  0  0  0
   -2.1544   -1.1021   -0.7263 N   0  0  0  0  0  0  0  0  0  0  0  0
   -3.4977   -1.0316   -0.8403 C   0  0  0  0  0  0  0  0  0  0  0  0
   -4.1431   -1.7984   -1.8897 N   0  0  0  0  0  4  0  0  0  0  0  0
   -5.3265   -1.5218   -2.1281 O   0  0  0  0  0  1  0  0  0  0  0  0
   -3.4762   -2.6623   -2.4761 O   0  0  0  0  0  0  0  0  0  0  0  0
   -4.0623   -0.1710    0.1265 C   0  0  0  0  0  0  0  0  0  0  0  0
   -5.4138    0.1033    0.3609 N   0  0  0  0  0  0  0  0  0  0  0  0
   -5.8703    1.0267   -0.3460 N   0  0  0  0  0  4  0  0  0  0  0  0
   -6.2730    1.8714   -0.9965 N   0  0  0  0  0  2  0  0  0  0  0  0
   -2.9930    0.2575    0.8735 C   0  0  0  0  0  0  0  0  0  0  0  0
   -2.9587    1.1233    1.9946 N   0  0  0  0  0  4  0  0  0  0  0  0
   -3.8021    2.0229    2.0244 O   0  0  0  0  0  1  0  0  0  0  0  0
   -2.0779    0.9175    2.8351 O   0  0  0  0  0  0  0  0  0  0  0  0
    2.7035    0.7187   -0.2801 C   0  0  0  0  0  0  0  0  0  0  0  0
    2.2577    1.7631   -1.1232 N   0  0  0  0  0  4  0  0  0  0  0  0
    1.0891    2.1362   -0.9706 O   0  0  0  0  0  1  0  0  0  0  0  0
    3.0685    2.1996   -1.9428 O   0  0  0  0  0  0  0  0  0  0  0  0
    0.3575   -0.2191   -1.2886 H   0  0  0  0  0  0  0  0  0  0  0  0
    0.4853   -1.7290   -0.4009 H   0  0  0  0  0  0  0  0  0  0  0  0
   -0.3240    0.9184    0.9405 H   0  0  0  0  0  0  0  0  0  0  0  0
   -0.3581   -0.7013    1.6767 H   0  0  0  0  0  0  0  0  0  0  0  0
  1  2  2  0
  2  3  2  0
  3  4  1  0
  4  5  1  0
  5  6  1  0
  6  7  1  0
  6  8  2  0
  5  9  2  0
  9 10  1  0
 10 11  1  0
 11 12  1  0
 12 13  1  0
 13 14  1  0
 14 15  2  0
 15 16  1  0
 16 17  1  0
 16 18  2  0
 15 19  1  0
 19 20  1  0
 20 21  2  0
 21 22  2  0
 19 23  2  0
 23 24  1  0
 24 25  1  0
 24 26  2  0
 10 27  1  0
 27 28  1  0
 28 29  1  0
 28 30  2  0
 23 13  1  0
 27  4  2  0
 11 31  1  0
 11 32  1  0
 12 33  1  0
 12 34  1  0
M  CHG  8   1  -1   2   1   6   1   7  -1  16   1  17  -1  21   1  22  -1
M  CHG  4  24   1  25  -1  28   1  29  -1
M  END
$$$$
