
     RDKit          3D

 38 39  0  0  0  0  0  0  0  0999 V2000
    1.8434    1.6910    2.5503 O   0  0  0  0  0  1  0  0  0  0  0  0
    2.4059    2.5718    1.8998 N   0  0  0  0  0  4  0  0  0  0  0  0
    2.6390    3.7296    2.2366 O   0  0  0  0  0  0  0  0  0  0  0  0
    2.8722    2.2585    0.6523 N   0  0  0  0  0  0  0  0  0  0  0  0
    2.9413    0.9977    0.1179 C   0  0  0  0  0  0  0  0  0  0  0  0
    3.9996    0.3528   -0.5112 C   0  0  0  0  0  0  0  0  0  0  0  0
    5.3081    0.8708   -0.7154 N   0  0  0  0  0  4  0  0  0  0  0  0
    5.4220    2.1028   -0.6748 O   0  0  0  0  0  1  0  0  0  0  0  0
    6.2183    0.0553   -0.8752 O   0  0  0  0  0  0  0  0  0  0  0  0
    3.5204   -0.9147   -0.8433 C   0  0  0  0  0  0  0  0  0  0  0  0
    4.1718   -1.9729   -1.5664 N   0  0  0  0  0  4  0  0  0  0  0  0
    4.2362   -3.0803   -1.0185 O   0  0  0  0  0  1  0  0  0  0  0  0
    4.6094   -1.6737   -2.6851 O   0  0  0  0  0  0  0  0  0  0  0  0
    2.2348   -1.0886   -0.4920 N   0  0  0  0  0  0  0  0  0  0  0  0
    1.8829    0.1024    0.0485 N   0  0  0  0  0  0  0  0  0  0  0  0
    0.4791    0.3160    0.3816 C   0  0  0  0  0  0  0  0  0  0  0  0
   -0.4840   -0.3179   -0.6240 C   0  0  0  0  0  0  0  0  0  0  0  0
   -1.8865   -0.1034   -0.2867 N   0  0  0  0  0  0  0  0  0  0  0  0
   -2.2437    1.1069    0.2039 N   0  0  0  0  0  0  0  0  0  0  0  0
   -3.5117    0.9245    0.6102 C   0  0  0  0  0  0  0  0  0  0  0  0
   -4.2071    2.0511    1.1687 N   0  0  0  0  0  4  0  0  0  0  0  0
   -3.7535    2.5309    2.2151 O   0  0  0  0  0  1  0  0  0  0  0  0
   -5.2049    2.4373    0.5467 O   0  0  0  0  0  0  0  0  0  0  0  0
   -3.9750   -0.3686    0.3619 C   0  0  0  0  0  0  0  0  0  0  0  0
   -5.2411   -0.9214    0.7049 N   0  0  0  0  0  4  0  0  0  0  0  0
   -5.5170   -2.0192    0.2038 O   0  0  0  0  0  1  0  0  0  0  0  0
   -5.9304   -0.2939    1.5112 O   0  0  0  0  0  0  0  0  0  0  0  0
   -2.9395   -1.0079   -0.3119 C   0  0  0  0  0  0  0  0  0  0  0  0
   -2.8803   -2.2728   -0.8401 N   0  0  0  0  0  0  0  0  0  0  0  0
   -2.4287   -2.5930   -2.0930 N   0  0  0  0  0  4  0  0  0  0  0  0
   -1.8550   -1.7231   -2.7483 O   0  0  0  0  0  1  0  0  0  0  0  0
   -2.6836   -3.7468   -2.4280 O   0  0  0  0  0  0  0  0  0  0  0  0
    3.5750    2.9319    0.3405 H   0  0  0  0  0  0  0  0  0  0  0  0
    0.3257   -0.1076    1.3803 H   0  0  0  0  0  0  0  0  0  0  0  0
    0.3139    1.3968    0.4234 H   0  0  0  0  0  0  0  0  0  0  0  0
   -0.3321    0.1050   -1.6233 H   0  0  0  0  0  0  0  0  0  0  0  0
   -0.3184   -1.3987   -0.6642 H   0  0  0  0  0  0  0  0  0  0  0  0
   -3.6063   -2.9284   -0.5441 H   0  0  0  0  0  0  0  0  0  0  0  0
  1  2  1  0
  2  3  2  0
  2  4  1  0
  4  5  1  0
  5  6  2  0
  6  7  1  0
  7  8  1  0
  7  9  2  0
  6 10  1  0
 10 11  1  0
 11 12  1  0
 11 13  2  0
 10 14  2  0
 14 15  1  0
 15 16  1  0
 16 17  1  0
 17 18  1  0
 18 19  1  0
 19 20  2  0
 20 21  1  0
 21 22  1  0
 21 23  2  0
 20 24  1  0
 24 25  1  0
 25 26  1  0
 25 27  2  0
 24 28  2  0
 28 29  1  0
 29 30  1  0
 30 31  1  0
 30 32  2  0
 15  5  1  0
 28 18  1  0
  4 33  1  0
 16 34  1  0
 16 35  1  0
 17 36  1  0
 17 37  1  0
 29 38  1  0
M  CHG  8   1  -1   2   1   7   1   8  -1  11   1  12  -1  21   1  22  -1
M  CHG  4  25   1  26  -1  30   1  31  -1
M  END
$$$$
