
     RDKit          3D

 42 44  0  0  0  0  0  0  0  0999 V2000
    0.1205   -1.4897    2.0065 N   0  0  0  0  0  0  0  0  0  0  0  0
    0.1563   -2.1790    0.7616 N   0  0  0  0  0  0  0  0  0  0  0  0
    1.2489   -2.4735   -0.0159 C   0  0  0  0  0  0  0  0  0  0  0  0
    2.6260   -2.0000    0.2467 C   0  0  0  0  0  0  0  0  0  0  0  0
    2.7124   -0.5702   -0.0514 N   0  0  0  0  0  0  0  0  0  0  0  0
    2.2032    0.3030    0.8699 N   0  0  0  0  0  0  0  0  0  0  0  0
    2.3222    1.5074    0.2640 C   0  0  0  0  0  0  0  0  0  0  0  0
    1.8918    2.6707    1.0013 N   0  0  0  0  0  4  0  0  0  0  0  0
    2.6298    3.6607    0.9414 O   0  0  0  0  0  1  0  0  0  0  0  0
    0.8485    2.5654    1.6649 O   0  0  0  0  0  0  0  0  0  0  0  0
    2.9396    1.4234   -0.9874 C   0  0  0  0  0  0  0  0  0  0  0  0
    3.2779    2.4738   -1.8740 N   0  0  0  0  0  4  0  0  0  0  0  0
    4.3901    2.3993   -2.4047 O   0  0  0  0  0  1  0  0  0  0  0  0
    2.4451    3.3697   -2.0196 O   0  0  0  0  0  0  0  0  0  0  0  0
    3.1724    0.0803   -1.1608 C   0  0  0  0  0  0  0  0  0  0  0  0
    3.7296   -0.5933   -2.2677 N   0  0  0  0  0  4  0  0  0  0  0  0
    4.6214   -1.4076   -2.0182 O   0  0  0  0  0  1  0  0  0  0  0  0
    3.2657   -0.3031   -3.3704 O   0  0  0  0  0  0  0  0  0  0  0  0
    0.8512   -3.1825   -1.0529 N   0  0  0  0  0  0  0  0  0  0  0  0
   -0.5193   -3.2719   -1.0063 N   0  0  0  0  0  0  0  0  0  0  0  0
   -0.9348   -2.6048    0.0519 C   0  0  0  0  0  0  0  0  0  0  0  0
   -2.3333   -2.2800    0.4260 C   0  0  0  0  0  0  0  0  0  0  0  0
   -2.5692   -0.8281    0.4544 N   0  0  0  0  0  0  0  0  0  0  0  0
   -1.8479   -0.0048   -0.3629 N   0  0  0  0  0  0  0  0  0  0  0  0
   -2.2434    1.2350   -0.0100 C   0  0  0  0  0  0  0  0  0  0  0  0
   -1.6740    2.3532   -0.7229 N   0  0  0  0  0  4  0  0  0  0  0  0
   -0.4894    2.2595   -1.0805 O   0  0  0  0  0  1  0  0  0  0  0  0
   -2.4286    3.3105   -0.9283 O   0  0  0  0  0  0  0  0  0  0  0  0
   -3.2298    1.2191    0.9786 C   0  0  0  0  0  0  0  0  0  0  0  0
   -3.8904    2.3186    1.5708 N   0  0  0  0  0  4  0  0  0  0  0  0
   -5.1225    2.2598    1.6059 O   0  0  0  0  0  1  0  0  0  0  0  0
   -3.1714    3.2239    1.9983 O   0  0  0  0  0  0  0  0  0  0  0  0
   -3.4254   -0.1132    1.2480 C   0  0  0  0  0  0  0  0  0  0  0  0
   -4.2761   -0.7254    2.1924 N   0  0  0  0  0  4  0  0  0  0  0  0
   -4.8507   -1.7548    1.8297 O   0  0  0  0  0  1  0  0  0  0  0  0
   -4.3315   -0.1924    3.3013 O   0  0  0  0  0  0  0  0  0  0  0  0
    0.6238   -0.5949    1.9407 H   0  0  0  0  0  0  0  0  0  0  0  0
    0.5946   -2.0090    2.7460 H   0  0  0  0  0  0  0  0  0  0  0  0
    3.3503   -2.5480   -0.3564 H   0  0  0  0  0  0  0  0  0  0  0  0
    2.9080   -2.1307    1.2975 H   0  0  0  0  0  0  0  0  0  0  0  0
   -3.0424   -2.6894   -0.3005 H   0  0  0  0  0  0  0  0  0  0  0  0
   -2.5492   -2.6871    1.4179 H   0  0  0  0  0  0  0  0  0  0  0  0
  1  2  1  0
  2  3  1  0
  3  4  1  0
  4  5  1  0
  5  6  1  0
  6  7  2  0
  7  8  1  0
  8  9  1  0
  8 10  2  0
  7 11  1  0
 11 12  1  0
 12 13  1  0
 12 14  2  0
 11 15  2  0
 15 16  1  0
 16 17  1  0
 16 18  2  0
  3 19  2  0
 19 20  1  0
 20 21  2  0
 21 22  1  0
 22 23  1  0
 23 24  1  0
 24 25  2  0
 25 26  1  0
 26 27  1  0
 26 28  2  0
 25 29  1  0
 29 30  1  0
 30 31  1  0
 30 32  2  0
 29 33  2  0
 33 34  1  0
 34 35  1  0
 34 36  2  0
 15  5  1  0
 21  2  1  0
 33 23  1  0
  1 37  1  0
  1 38  1  0
  4 39  1  0
  4 40  1  0
 22 41  1  0
 22 42  1  0
M  CHG  8   8   1   9  -1  12   1  13  -1  16   1  17  -1  26   1  27  -1
M  CHG  4  30   1  31  -1  34   1  35  -1
M  END
$$$$
