
     RDKit          3D

 20 21  0  0  0  0  0  0  0  0999 V2000
   -2.1937   -1.9138   -0.2680 N   0  0  0  0  0  0  0  0  0  0  0  0
   -0.9077   -1.4084   -0.1517 N   0  0  0  0  0  0  0  0  0  0  0  0
    0.1894   -2.1869   -0.3061 N   0  0  0  0  0  0  0  0  0  0  0  0
    1.1633   -1.2406   -0.2325 C   0  0  0  0  0  0  0  0  0  0  0  0
    2.5396   -1.6300   -0.4275 N   0  0  0  0  0  4  0  0  0  0  0  0
    2.8853   -2.7565   -0.0487 O   0  0  0  0  0  1  0  0  0  0  0  0
    3.2744   -0.7867   -0.9617 O   0  0  0  0  0  0  0  0  0  0  0  0
    0.6785    0.0718   -0.0260 C   0  0  0  0  0  0  0  0  0  0  0  0
   -0.6785   -0.0718    0.0260 C   0  0  0  0  0  0  0  0  0  0  0  0
   -1.1633    1.2406    0.2325 C   0  0  0  0  0  0  0  0  0  0  0  0
   -2.5396    1.6300    0.4275 N   0  0  0  0  0  4  0  0  0  0  0  0
   -2.8853    2.7565    0.0487 O   0  0  0  0  0  1  0  0  0  0  0  0
   -3.2744    0.7867    0.9617 O   0  0  0  0  0  0  0  0  0  0  0  0
   -0.1894    2.1869    0.3061 N   0  0  0  0  0  0  0  0  0  0  0  0
    0.9077    1.4084    0.1517 N   0  0  0  0  0  0  0  0  0  0  0  0
    2.1937    1.9138    0.2680 N   0  0  0  0  0  0  0  0  0  0  0  0
   -2.6605   -1.9774    0.6359 H   0  0  0  0  0  0  0  0  0  0  0  0
   -2.1442   -2.8747   -0.6062 H   0  0  0  0  0  0  0  0  0  0  0  0
    2.6605    1.9774   -0.6359 H   0  0  0  0  0  0  0  0  0  0  0  0
    2.1442    2.8747    0.6062 H   0  0  0  0  0  0  0  0  0  0  0  0
  1  2  1  0
  2  3  1  0
  3  4  2  0
  4  5  1  0
  5  6  1  0
  5  7  2  0
  4  8  1  0
  8  9  2  0
  9 10  1  0
 10 11  1  0
 11 12  1  0
 11 13  2  0
 10 14  2  0
 14 15  1  0
 15 16  1  0
  9  2  1  0
 15  8  1  0
  1 17  1  0
  1 18  1  0
 16 19  1  0
 16 20  1  0
M  CHG  4   5   1   6  -1  11   1  12  -1
M  END
$$$$
