
     RDKit          3D

 16 15  0  0  0  0  0  0  0  0999 V2000
   -2.1008   -1.3344   -0.8725 N   0  0  0  0  0  0  0  0  0  0  0  0
   -0.7304   -1.1645   -0.6091 N   0  0  0  0  0  0  0  0  0  0  0  0
   -0.2862   -0.0273    0.0859 C   0  0  0  0  0  0  0  0  0  0  0  0
   -1.2828    0.6259    0.8264 N   0  0  0  0  0  0  0  0  0  0  0  0
    1.0064    0.3943    0.0478 C   0  0  0  0  0  0  0  0  0  0  0  0
    1.4463    1.5499    0.7602 N   0  0  0  0  0  4  0  0  0  0  0  0
    2.1494    2.3694    0.1526 O   0  0  0  0  0  1  0  0  0  0  0  0
    1.0629    1.6833    1.9350 O   0  0  0  0  0  0  0  0  0  0  0  0
    2.0265   -0.2953   -0.6776 N   0  0  0  0  0  4  0  0  0  0  0  0
    1.7186   -0.8039   -1.7681 O   0  0  0  0  0  1  0  0  0  0  0  0
    3.1455   -0.3916   -0.1551 O   0  0  0  0  0  0  0  0  0  0  0  0
   -2.5603   -0.4277   -1.0081 H   0  0  0  0  0  0  0  0  0  0  0  0
   -2.5749   -1.7996   -0.0967 H   0  0  0  0  0  0  0  0  0  0  0  0
   -0.1031   -1.4749   -1.3715 H   0  0  0  0  0  0  0  0  0  0  0  0
   -0.9283    1.1448    1.6369 H   0  0  0  0  0  0  0  0  0  0  0  0
   -1.9888   -0.0484    1.1140 H   0  0  0  0  0  0  0  0  0  0  0  0
  1  2  1  0
  2  3  1  0
  3  4  1  0
  3  5  2  3
  5  6  1  0
  6  7  1  0
  6  8  2  0
  5  9  1  0
  9 10  1  0
  9 11  2  0
  1 12  1  0
  1 13  1  0
  2 14  1  0
  4 15  1  0
  4 16  1  0
M  CHG  4   6   1   7  -1   9   1  10  -1
M  END
$$$$
