
     RDKit          3D

 22 23  0  0  0  0  0  0  0  0999 V2000
   -5.5850    0.2585   -0.4786 O   0  0  0  0  0  1  0  0  0  0  0  0
   -4.6964    0.9329   -0.9940 N   0  0  0  0  0  4  0  0  0  0  0  0
   -4.8412    1.8770   -1.7718 O   0  0  0  0  0  0  0  0  0  0  0  0
   -3.4009    0.6788   -0.7337 N   0  0  0  0  0  0  0  0  0  0  0  0
   -2.9847   -0.3127    0.0938 C   0  0  0  0  0  0  0  0  0  0  0  0
   -3.6811   -1.2098    0.7990 N   0  0  0  0  0  0  0  0  0  0  0  0
   -2.7486   -1.9868    1.4722 O   0  0  0  0  0  0  0  0  0  0  0  0
   -1.4480   -1.5768    1.1896 N   0  0  0  0  0  0  0  0  0  0  0  0
   -1.6129   -0.5577    0.3497 C   0  0  0  0  0  0  0  0  0  0  0  0
   -0.5682    0.1885   -0.2181 N   0  0  0  0  0  0  0  0  0  0  0  0
    0.5682   -0.1885    0.1362 N   0  0  0  0  0  0  0  0  0  0  0  0
    1.6129    0.5578   -0.4316 C   0  0  0  0  0  0  0  0  0  0  0  0
    1.4480    1.5768   -1.2714 N   0  0  0  0  0  0  0  0  0  0  0  0
    2.7486    1.9868   -1.5540 O   0  0  0  0  0  0  0  0  0  0  0  0
    3.6811    1.2098   -0.8809 N   0  0  0  0  0  0  0  0  0  0  0  0
    2.9847    0.3127   -0.1756 C   0  0  0  0  0  0  0  0  0  0  0  0
    3.4009   -0.6788    0.6519 N   0  0  0  0  0  0  0  0  0  0  0  0
    4.6964   -0.9329    0.9122 N   0  0  0  0  0  4  0  0  0  0  0  0
    4.8412   -1.8771    1.6900 O   0  0  0  0  0  1  0  0  0  0  0  0
    5.5850   -0.2585    0.3968 O   0  0  0  0  0  0  0  0  0  0  0  0
   -2.7276    1.2749   -1.1939 H   0  0  0  0  0  0  0  0  0  0  0  0
    2.7276   -1.2749    1.1120 H   0  0  0  0  0  0  0  0  0  0  0  0
  1  2  1  0
  2  3  2  0
  2  4  1  0
  4  5  1  0
  5  6  2  0
  6  7  1  0
  7  8  1  0
  8  9  2  0
  9 10  1  0
 10 11  2  0
 11 12  1  0
 12 13  2  0
 13 14  1  0
 14 15  1  0
 15 16  2  0
 16 17  1  0
 17 18  1  0
 18 19  1  0
 18 20  2  0
  9  5  1  0
 16 12  1  0
  4 21  1  0
 17 22  1  0
M  CHG  4   1  -1   2   1  18   1  19  -1
M  END
$$$$
