
     RDKit          3D

 16 16  0  0  0  0  0  0  0  0999 V2000
   -1.3060    1.5496    0.2576 N   0  0  0  0  0  0  0  0  0  0  0  0
   -0.4804    0.4877    0.1293 C   0  0  0  0  0  0  0  0  0  0  0  0
   -0.7119   -0.8828    0.4477 C   0  0  0  0  0  0  0  0  0  0  0  0
   -1.9090   -1.5097    0.9807 N   0  0  0  0  0  4  0  0  0  0  0  0
   -2.9106   -0.7851    1.0882 O   0  0  0  0  0  1  0  0  0  0  0  0
   -1.8566   -2.7088    1.2876 O   0  0  0  0  0  0  0  0  0  0  0  0
    0.3584   -1.6607    0.1764 N   0  0  0  0  0  0  0  0  0  0  0  0
    1.2454   -0.7823   -0.2941 N   0  0  0  0  0  0  0  0  0  0  0  0
    2.4129   -1.3231   -0.7675 O   0  0  0  0  0  0  0  0  0  0  0  0
    0.8128    0.4945   -0.3347 C   0  0  0  0  0  0  0  0  0  0  0  0
    1.6301    1.5387   -0.8063 N   0  0  0  0  0  4  0  0  0  0  0  0
    1.0490    2.4755   -1.3688 O   0  0  0  0  0  1  0  0  0  0  0  0
    2.8431    1.4629   -0.5914 O   0  0  0  0  0  0  0  0  0  0  0  0
   -2.2997    1.4350    0.4762 H   0  0  0  0  0  0  0  0  0  0  0  0
   -1.1065    2.4464   -0.1930 H   0  0  0  0  0  0  0  0  0  0  0  0
    2.2289   -2.2376   -0.4880 H   0  0  0  0  0  0  0  0  0  0  0  0
  1  2  1  0
  2  3  1  0
  3  4  1  0
  4  5  1  0
  4  6  2  0
  3  7  2  0
  7  8  1  0
  8  9  1  0
  8 10  1  0
 10 11  1  0
 11 12  1  0
 11 13  2  0
 10  2  2  0
  1 14  1  0
  1 15  1  0
  9 16  1  0
M  CHG  4   4   1   5  -1  11   1  12  -1
M  END
$$$$
