
     RDKit          3D

 28 29  0  0  0  0  0  0  0  0999 V2000
    4.8522    0.5909   -2.2224 O   0  0  0  0  0  1  0  0  0  0  0  0
    5.2439   -0.2197   -1.3705 N   0  0  0  0  0  4  0  0  0  0  0  0
    5.7682   -1.3135   -1.6312 O   0  0  0  0  0  0  0  0  0  0  0  0
    5.0785    0.1074    0.0679 C   0  0  0  0  0  0  0  0  0  0  0  0
    3.6759    0.3578    0.4455 C   0  0  0  0  0  0  0  0  0  0  0  0
    2.5523   -0.0667   -0.0954 N   0  0  0  0  0  0  0  0  0  0  0  0
    1.5955    0.4343    0.7573 C   0  0  0  0  0  0  0  0  0  0  0  0
    0.2075    0.2936    0.6278 N   0  0  0  0  0  0  0  0  0  0  0  0
   -0.1129   -0.4031   -0.3566 N   0  0  0  0  0  0  0  0  0  0  0  0
   -1.5013   -0.5353   -0.4922 C   0  0  0  0  0  0  0  0  0  0  0  0
   -1.9967   -1.3187   -1.4565 N   0  0  0  0  0  0  0  0  0  0  0  0
   -3.3747   -1.2161   -1.2931 O   0  0  0  0  0  0  0  0  0  0  0  0
   -3.5832   -0.3664   -0.2437 C   0  0  0  0  0  0  0  0  0  0  0  0
   -4.9714   -0.0598    0.1452 C   0  0  0  0  0  0  0  0  0  0  0  0
   -5.6694   -1.1646    0.8502 N   0  0  0  0  0  4  0  0  0  0  0  0
   -5.2678   -2.3264    0.6936 O   0  0  0  0  0  1  0  0  0  0  0  0
   -6.6041   -0.8421    1.5995 O   0  0  0  0  0  0  0  0  0  0  0  0
   -5.8375    0.2671   -1.0150 N   0  0  0  0  0  4  0  0  0  0  0  0
   -6.1701    1.4554   -1.1377 O   0  0  0  0  0  1  0  0  0  0  0  0
   -6.1512   -0.6328   -1.8067 O   0  0  0  0  0  0  0  0  0  0  0  0
   -2.4601    0.0822    0.2804 N   0  0  0  0  0  0  0  0  0  0  0  0
    2.0940    1.0916    1.8108 N   0  0  0  0  0  0  0  0  0  0  0  0
    3.4697    1.0343    1.6166 O   0  0  0  0  0  0  0  0  0  0  0  0
    5.9872    1.2648    0.2762 N   0  0  0  0  0  4  0  0  0  0  0  0
    5.5602    2.4096    0.0693 O   0  0  0  0  0  1  0  0  0  0  0  0
    7.1279    1.0057    0.6879 O   0  0  0  0  0  0  0  0  0  0  0  0
    5.4767   -0.7303    0.6522 H   0  0  0  0  0  0  0  0  0  0  0  0
   -4.9894    0.8008    0.8249 H   0  0  0  0  0  0  0  0  0  0  0  0
  1  2  1  0
  2  3  2  0
  2  4  1  0
  4  5  1  0
  5  6  2  0
  6  7  1  0
  7  8  1  0
  8  9  2  0
  9 10  1  0
 10 11  2  0
 11 12  1  0
 12 13  1  0
 13 14  1  0
 14 15  1  0
 15 16  1  0
 15 17  2  0
 14 18  1  0
 18 19  1  0
 18 20  2  0
 13 21  2  0
  7 22  2  0
 22 23  1  0
  4 24  1  0
 24 25  1  0
 24 26  2  0
 21 10  1  0
 23  5  1  0
  4 27  1  0
 14 28  1  0
M  CHG  8   1  -1   2   1  15   1  16  -1  18   1  19  -1  24   1  25  -1
M  END
$$$$
