
     RDKit          3D

 32 33  0  0  0  0  0  0  0  0999 V2000
    0.1161    1.1190   -1.4937 O   0  0  0  0  0  0  0  0  0  0  0  0
    0.0455    0.4385   -0.4699 C   0  0  0  0  0  0  0  0  0  0  0  0
    1.2207   -0.0835    0.1946 C   0  0  0  0  0  0  0  0  0  0  0  0
    1.3067   -0.8357    1.2715 N   0  0  0  0  0  0  0  0  0  0  0  0
    2.6432   -1.0715    1.5008 N   0  0  0  0  0  0  0  0  0  0  0  0
    3.3169   -0.4477    0.5547 C   0  0  0  0  0  0  0  0  0  0  0  0
    4.7813   -0.3732    0.3082 C   0  0  0  0  0  0  0  0  0  0  0  0
    5.1209   -0.7144   -1.1027 N   0  0  0  0  0  4  0  0  0  0  0  0
    4.4132   -1.5666   -1.6693 O   0  0  0  0  0  1  0  0  0  0  0  0
    6.0638   -0.1389   -1.6676 O   0  0  0  0  0  0  0  0  0  0  0  0
    5.5309   -1.3110    1.1887 N   0  0  0  0  0  4  0  0  0  0  0  0
    5.4752   -1.1129    2.4151 O   0  0  0  0  0  1  0  0  0  0  0  0
    6.1427   -2.2663    0.6851 O   0  0  0  0  0  0  0  0  0  0  0  0
    5.3405    0.9847    0.5678 N   0  0  0  0  0  4  0  0  0  0  0  0
    4.5720    1.9551    0.4511 O   0  0  0  0  0  1  0  0  0  0  0  0
    6.5381    1.1054    0.8747 O   0  0  0  0  0  0  0  0  0  0  0  0
    2.4685    0.2019   -0.3206 O   0  0  0  0  0  0  0  0  0  0  0  0
   -1.2184    0.1056    0.1520 C   0  0  0  0  0  0  0  0  0  0  0  0
   -1.4543   -0.5857    1.2471 N   0  0  0  0  0  0  0  0  0  0  0  0
   -2.8188   -0.6200    1.4241 N   0  0  0  0  0  0  0  0  0  0  0  0
   -3.3582    0.0494    0.4245 C   0  0  0  0  0  0  0  0  0  0  0  0
   -4.7848    0.3397    0.1222 C   0  0  0  0  0  0  0  0  0  0  0  0
   -5.6729   -0.0569    1.2493 N   0  0  0  0  0  4  0  0  0  0  0  0
   -6.2932    0.8165    1.8762 O   0  0  0  0  0  1  0  0  0  0  0  0
   -5.7219   -1.2645    1.5419 O   0  0  0  0  0  0  0  0  0  0  0  0
   -5.2790   -0.3920   -1.0797 N   0  0  0  0  0  4  0  0  0  0  0  0
   -6.4903   -0.6450   -1.1874 O   0  0  0  0  0  1  0  0  0  0  0  0
   -4.4429   -0.7112   -1.9428 O   0  0  0  0  0  0  0  0  0  0  0  0
   -5.0092    1.7906   -0.1366 N   0  0  0  0  0  4  0  0  0  0  0  0
   -4.3061    2.5981    0.4973 O   0  0  0  0  0  1  0  0  0  0  0  0
   -5.8555    2.1455   -0.9716 O   0  0  0  0  0  0  0  0  0  0  0  0
   -2.3907    0.5471   -0.4264 O   0  0  0  0  0  0  0  0  0  0  0  0
  1  2  2  0
  2  3  1  0
  3  4  2  0
  4  5  1  0
  5  6  2  0
  6  7  1  0
  7  8  1  0
  8  9  1  0
  8 10  2  0
  7 11  1  0
 11 12  1  0
 11 13  2  0
  7 14  1  0
 14 15  1  0
 14 16  2  0
  6 17  1  0
  2 18  1  0
 18 19  2  0
 19 20  1  0
 20 21  2  0
 21 22  1  0
 22 23  1  0
 23 24  1  0
 23 25  2  0
 22 26  1  0
 26 27  1  0
 26 28  2  0
 22 29  1  0
 29 30  1  0
 29 31  2  0
 21 32  1  0
 17  3  1  0
 32 18  1  0
M  CHG  8   8   1   9  -1  11   1  12  -1  14   1  15  -1  23   1  24  -1
M  CHG  4  26   1  27  -1  29   1  30  -1
M  END
$$$$
