
     RDKit          3D

 27 29  0  0  0  0  0  0  0  0999 V2000
   -4.5596    2.5786   -1.4623 O   0  0  0  0  0  1  0  0  0  0  0  0
   -4.3813    1.4597   -0.9650 N   0  0  0  0  0  4  0  0  0  0  0  0
   -5.2530    0.6292   -0.6774 O   0  0  0  0  0  0  0  0  0  0  0  0
   -3.0252    1.0712   -0.6879 C   0  0  0  0  0  0  0  0  0  0  0  0
   -2.1665    0.9889   -1.7272 N   0  0  0  0  0  0  0  0  0  0  0  0
   -1.0359    0.5377   -1.1441 N   0  0  0  0  0  0  0  0  0  0  0  0
    0.1815    0.3048   -1.9080 C   0  0  0  0  0  0  0  0  0  0  0  0
    1.2440   -0.1883   -1.0433 N   0  0  0  0  0  0  0  0  0  0  0  0
    2.4752   -0.4703   -1.5188 N   0  0  0  0  0  0  0  0  0  0  0  0
    3.1303   -0.8948   -0.4166 C   0  0  0  0  0  0  0  0  0  0  0  0
    4.5250   -1.2184   -0.5458 N   0  0  0  0  0  4  0  0  0  0  0  0
    5.3041   -0.5433    0.1394 O   0  0  0  0  0  1  0  0  0  0  0  0
    4.8245   -2.1336   -1.3226 O   0  0  0  0  0  0  0  0  0  0  0  0
    2.3325   -0.8820    0.7376 C   0  0  0  0  0  0  0  0  0  0  0  0
    2.6862   -1.2891    2.0517 N   0  0  0  0  0  4  0  0  0  0  0  0
    1.9642   -0.8890    2.9728 O   0  0  0  0  0  1  0  0  0  0  0  0
    3.6606   -2.0378    2.1596 O   0  0  0  0  0  0  0  0  0  0  0  0
    1.1080   -0.4055    0.3114 C   0  0  0  0  0  0  0  0  0  0  0  0
   -0.0866   -0.1454    0.9099 N   0  0  0  0  0  0  0  0  0  0  0  0
   -1.1578    0.3219    0.2121 C   0  0  0  0  0  0  0  0  0  0  0  0
   -2.4532    0.6792    0.5319 C   0  0  0  0  0  0  0  0  0  0  0  0
   -3.0543    0.6707    1.8189 N   0  0  0  0  0  4  0  0  0  0  0  0
   -2.5026   -0.0153    2.6876 O   0  0  0  0  0  1  0  0  0  0  0  0
   -4.0535    1.3778    1.9716 O   0  0  0  0  0  0  0  0  0  0  0  0
   -0.0261   -0.4533   -2.6676 H   0  0  0  0  0  0  0  0  0  0  0  0
    0.5028    1.2540   -2.3445 H   0  0  0  0  0  0  0  0  0  0  0  0
   -0.1832   -0.3078    1.9264 H   0  0  0  0  0  0  0  0  0  0  0  0
  1  2  1  0
  2  3  2  0
  2  4  1  0
  4  5  2  0
  5  6  1  0
  6  7  1  0
  7  8  1  0
  8  9  1  0
  9 10  2  0
 10 11  1  0
 11 12  1  0
 11 13  2  0
 10 14  1  0
 14 15  1  0
 15 16  1  0
 15 17  2  0
 14 18  2  0
 18 19  1  0
 19 20  1  0
 20 21  2  0
 21 22  1  0
 22 23  1  0
 22 24  2  0
 18  8  1  0
 20  6  1  0
 21  4  1  0
  7 25  1  0
  7 26  1  0
 19 27  1  0
M  CHG  8   1  -1   2   1  11   1  12  -1  15   1  16  -1  22   1  23  -1
M  END
$$$$
