
     RDKit          3D

 29 31  0  0  0  0  0  0  0  0999 V2000
    0.0709   -2.0467    0.1043 N   0  0  0  0  0  0  0  0  0  0  0  0
    0.0332   -0.6863    0.3861 N   0  0  0  0  0  0  0  0  0  0  0  0
    1.1953   -0.0104    0.1347 C   0  0  0  0  0  0  0  0  0  0  0  0
    2.5583   -0.2296    0.2734 C   0  0  0  0  0  0  0  0  0  0  0  0
    3.2191   -1.3609    0.8159 N   0  0  0  0  0  4  0  0  0  0  0  0
    4.1298   -1.1294    1.6163 O   0  0  0  0  0  1  0  0  0  0  0  0
    2.8114   -2.4742    0.4670 O   0  0  0  0  0  0  0  0  0  0  0  0
    3.1750    0.9554   -0.1551 C   0  0  0  0  0  0  0  0  0  0  0  0
    4.5820    1.2409   -0.2917 N   0  0  0  0  0  4  0  0  0  0  0  0
    5.2753    0.3277   -0.7586 O   0  0  0  0  0  1  0  0  0  0  0  0
    4.9801    2.3586    0.0592 O   0  0  0  0  0  0  0  0  0  0  0  0
    2.2886    1.8983   -0.5283 N   0  0  0  0  0  0  0  0  0  0  0  0
    1.1011    1.2940   -0.3160 N   0  0  0  0  0  0  0  0  0  0  0  0
   -0.1452    2.0002   -0.5663 C   0  0  0  0  0  0  0  0  0  0  0  0
   -1.2881    1.1436   -0.3024 N   0  0  0  0  0  0  0  0  0  0  0  0
   -2.5470    1.5780   -0.5218 N   0  0  0  0  0  0  0  0  0  0  0  0
   -3.2916    0.4933   -0.2263 C   0  0  0  0  0  0  0  0  0  0  0  0
   -4.7262    0.6151   -0.2769 N   0  0  0  0  0  4  0  0  0  0  0  0
   -5.3411    0.1862    0.7083 O   0  0  0  0  0  1  0  0  0  0  0  0
   -5.2227    1.1375   -1.2827 O   0  0  0  0  0  0  0  0  0  0  0  0
   -2.5185   -0.6001    0.1880 C   0  0  0  0  0  0  0  0  0  0  0  0
   -2.9982   -1.8808    0.5623 N   0  0  0  0  0  4  0  0  0  0  0  0
   -2.4443   -2.4349    1.5199 O   0  0  0  0  0  1  0  0  0  0  0  0
   -3.9243   -2.3378   -0.1147 O   0  0  0  0  0  0  0  0  0  0  0  0
   -1.2047   -0.1616    0.1361 C   0  0  0  0  0  0  0  0  0  0  0  0
   -0.4164   -2.5734    0.8444 H   0  0  0  0  0  0  0  0  0  0  0  0
    1.0125   -2.4600    0.1273 H   0  0  0  0  0  0  0  0  0  0  0  0
   -0.1955    2.8610    0.1057 H   0  0  0  0  0  0  0  0  0  0  0  0
   -0.1691    2.2963   -1.6185 H   0  0  0  0  0  0  0  0  0  0  0  0
  1  2  1  0
  2  3  1  0
  3  4  2  0
  4  5  1  0
  5  6  1  0
  5  7  2  0
  4  8  1  0
  8  9  1  0
  9 10  1  0
  9 11  2  0
  8 12  2  0
 12 13  1  0
 13 14  1  0
 14 15  1  0
 15 16  1  0
 16 17  2  0
 17 18  1  0
 18 19  1  0
 18 20  2  0
 17 21  1  0
 21 22  1  0
 22 23  1  0
 22 24  2  0
 21 25  2  0
 13  3  1  0
 25  2  1  0
 25 15  1  0
  1 26  1  0
  1 27  1  0
 14 28  1  0
 14 29  1  0
M  CHG  8   5   1   6  -1   9   1  10  -1  18   1  19  -1  22   1  23  -1
M  END
$$$$
