
     RDKit          3D

 31 33  0  0  0  0  0  0  0  0999 V2000
    0.4525    3.4744    1.4363 O   0  0  0  0  0  1  0  0  0  0  0  0
   -0.0007    2.6259    0.6729 N   0  0  0  0  0  4  0  0  0  0  0  0
   -0.1978    2.7117   -0.5417 O   0  0  0  0  0  0  0  0  0  0  0  0
   -0.2420    1.4132    1.2662 N   0  0  0  0  0  0  0  0  0  0  0  0
   -0.1047    0.2405    0.5099 N   0  0  0  0  0  0  0  0  0  0  0  0
   -1.2424   -0.1669   -0.1272 C   0  0  0  0  0  0  0  0  0  0  0  0
   -2.6105   -0.0036    0.0139 C   0  0  0  0  0  0  0  0  0  0  0  0
   -3.3038    0.6995    1.0267 N   0  0  0  0  0  4  0  0  0  0  0  0
   -3.9672    0.0063    1.8037 O   0  0  0  0  0  1  0  0  0  0  0  0
   -3.1646    1.9252    1.0549 O   0  0  0  0  0  0  0  0  0  0  0  0
   -3.1921   -0.7702   -1.0063 C   0  0  0  0  0  0  0  0  0  0  0  0
   -4.5920   -0.9371   -1.3254 N   0  0  0  0  0  4  0  0  0  0  0  0
   -5.3380   -0.0057   -0.9984 O   0  0  0  0  0  1  0  0  0  0  0  0
   -4.9390   -1.9821   -1.8899 O   0  0  0  0  0  0  0  0  0  0  0  0
   -2.2703   -1.3870   -1.7738 N   0  0  0  0  0  0  0  0  0  0  0  0
   -1.1040   -1.0017   -1.2180 N   0  0  0  0  0  0  0  0  0  0  0  0
    0.1687   -1.4494   -1.7620 C   0  0  0  0  0  0  0  0  0  0  0  0
    1.2794   -0.9765   -0.9470 N   0  0  0  0  0  0  0  0  0  0  0  0
    2.5467   -1.3330   -1.2356 N   0  0  0  0  0  0  0  0  0  0  0  0
    3.2625   -0.7061   -0.2826 C   0  0  0  0  0  0  0  0  0  0  0  0
    4.6792   -0.9582   -0.2258 N   0  0  0  0  0  4  0  0  0  0  0  0
    5.1079   -1.3815    0.8555 O   0  0  0  0  0  1  0  0  0  0  0  0
    5.3387   -0.7384   -1.2486 O   0  0  0  0  0  0  0  0  0  0  0  0
    2.4614    0.0326    0.6023 C   0  0  0  0  0  0  0  0  0  0  0  0
    2.9131    0.7791    1.7232 N   0  0  0  0  0  4  0  0  0  0  0  0
    2.1234    0.8879    2.6691 O   0  0  0  0  0  1  0  0  0  0  0  0
    4.0326    1.2866    1.6379 O   0  0  0  0  0  0  0  0  0  0  0  0
    1.1584   -0.1484    0.1559 C   0  0  0  0  0  0  0  0  0  0  0  0
    0.2847    1.4424    2.1410 H   0  0  0  0  0  0  0  0  0  0  0  0
    0.2792   -1.0367   -2.7683 H   0  0  0  0  0  0  0  0  0  0  0  0
    0.1806   -2.5427   -1.7590 H   0  0  0  0  0  0  0  0  0  0  0  0
  1  2  1  0
  2  3  2  0
  2  4  1  0
  4  5  1  0
  5  6  1  0
  6  7  2  0
  7  8  1  0
  8  9  1  0
  8 10  2  0
  7 11  1  0
 11 12  1  0
 12 13  1  0
 12 14  2  0
 11 15  2  0
 15 16  1  0
 16 17  1  0
 17 18  1  0
 18 19  1  0
 19 20  2  0
 20 21  1  0
 21 22  1  0
 21 23  2  0
 20 24  1  0
 24 25  1  0
 25 26  1  0
 25 27  2  0
 24 28  2  0
 16  6  1  0
 28  5  1  0
 28 18  1  0
  4 29  1  0
 17 30  1  0
 17 31  1  0
M  CHG  8   1  -1   2   1   8   1   9  -1  12   1  13  -1  21   1  22  -1
M  CHG  2  25   1  26  -1
M  END
$$$$
