
     RDKit          3D

 21 21  0  0  0  0  0  0  0  0999 V2000
    3.8116    1.9402    0.7818 O   0  0  0  0  0  1  0  0  0  0  0  0
    3.3666    1.1327   -0.0484 N   0  0  0  0  0  4  0  0  0  0  0  0
    3.7636    1.0394   -1.2188 O   0  0  0  0  0  0  0  0  0  0  0  0
    2.2701    0.2473    0.4181 C   0  0  0  0  0  0  0  0  0  0  0  0
    0.9745    0.5747   -0.2034 C   0  0  0  0  0  0  0  0  0  0  0  0
    0.6462    1.4968   -1.0848 N   0  0  0  0  0  0  0  0  0  0  0  0
   -0.7107    1.3974   -1.2887 N   0  0  0  0  0  0  0  0  0  0  0  0
   -1.1467    0.4311   -0.5070 C   0  0  0  0  0  0  0  0  0  0  0  0
   -2.5300   -0.0523   -0.3395 C   0  0  0  0  0  0  0  0  0  0  0  0
   -2.6318   -1.5325   -0.3364 N   0  0  0  0  0  4  0  0  0  0  0  0
   -2.0979   -2.1704    0.5831 O   0  0  0  0  0  1  0  0  0  0  0  0
   -3.2314   -2.0483   -1.2908 O   0  0  0  0  0  0  0  0  0  0  0  0
   -3.1596    0.3736    0.9368 N   0  0  0  0  0  4  0  0  0  0  0  0
   -2.4317    0.6350    1.9070 O   0  0  0  0  0  1  0  0  0  0  0  0
   -4.3954    0.4756    0.9416 O   0  0  0  0  0  0  0  0  0  0  0  0
   -0.1268   -0.1321    0.2259 O   0  0  0  0  0  0  0  0  0  0  0  0
    2.7476   -1.1274    0.1174 N   0  0  0  0  0  4  0  0  0  0  0  0
    3.5217   -1.6389    0.9406 O   0  0  0  0  0  1  0  0  0  0  0  0
    2.3211   -1.7018   -0.8956 O   0  0  0  0  0  0  0  0  0  0  0  0
    2.2052    0.3328    1.5089 H   0  0  0  0  0  0  0  0  0  0  0  0
   -3.1662    0.3271   -1.1479 H   0  0  0  0  0  0  0  0  0  0  0  0
  1  2  1  0
  2  3  2  0
  2  4  1  0
  4  5  1  0
  5  6  2  0
  6  7  1  0
  7  8  2  0
  8  9  1  0
  9 10  1  0
 10 11  1  0
 10 12  2  0
  9 13  1  0
 13 14  1  0
 13 15  2  0
  8 16  1  0
  4 17  1  0
 17 18  1  0
 17 19  2  0
 16  5  1  0
  4 20  1  0
  9 21  1  0
M  CHG  8   1  -1   2   1  10   1  11  -1  13   1  14  -1  17   1  18  -1
M  END
$$$$
