
     RDKit          3D

 25 25  0  0  0  0  0  0  0  0999 V2000
    3.6586    1.8418   -0.2121 O   0  0  0  0  0  1  0  0  0  0  0  0
    3.5561    0.7333    0.3420 N   0  0  0  0  0  4  0  0  0  0  0  0
    4.2835    0.3746    1.2813 O   0  0  0  0  0  0  0  0  0  0  0  0
    2.4577   -0.1596   -0.1169 C   0  0  0  0  0  0  0  0  0  0  0  0
    1.1243    0.4488    0.1607 C   0  0  0  0  0  0  0  0  0  0  0  0
    0.8189    1.5842    0.7566 N   0  0  0  0  0  0  0  0  0  0  0  0
   -0.5506    1.6710    0.8073 N   0  0  0  0  0  0  0  0  0  0  0  0
   -1.0397    0.5782    0.2557 C   0  0  0  0  0  0  0  0  0  0  0  0
   -2.4562    0.1780    0.0140 C   0  0  0  0  0  0  0  0  0  0  0  0
   -2.8163   -1.1171    0.6593 N   0  0  0  0  0  4  0  0  0  0  0  0
   -3.9815   -1.3115    1.0404 O   0  0  0  0  0  1  0  0  0  0  0  0
   -1.9181   -1.9695    0.7699 O   0  0  0  0  0  0  0  0  0  0  0  0
   -2.7440    0.0089   -1.4377 N   0  0  0  0  0  4  0  0  0  0  0  0
   -2.0434    0.6546   -2.2367 O   0  0  0  0  0  1  0  0  0  0  0  0
   -3.6421   -0.7669   -1.7994 O   0  0  0  0  0  0  0  0  0  0  0  0
   -3.3966    1.2030    0.5427 N   0  0  0  0  0  4  0  0  0  0  0  0
   -4.1000    1.8524   -0.2468 O   0  0  0  0  0  1  0  0  0  0  0  0
   -3.3912    1.4020    1.7702 O   0  0  0  0  0  0  0  0  0  0  0  0
   -0.0205   -0.2489   -0.1844 O   0  0  0  0  0  0  0  0  0  0  0  0
    2.6237   -1.4690    0.5733 N   0  0  0  0  0  4  0  0  0  0  0  0
    1.9609   -1.6557    1.6088 O   0  0  0  0  0  1  0  0  0  0  0  0
    3.3875   -2.3224    0.0961 O   0  0  0  0  0  0  0  0  0  0  0  0
    2.6892   -0.4249   -1.5658 N   0  0  0  0  0  4  0  0  0  0  0  0
    1.6975   -0.7068   -2.2606 O   0  0  0  0  0  1  0  0  0  0  0  0
    3.8423   -0.3786   -2.0232 O   0  0  0  0  0  0  0  0  0  0  0  0
  1  2  1  0
  2  3  2  0
  2  4  1  0
  4  5  1  0
  5  6  2  0
  6  7  1  0
  7  8  2  0
  8  9  1  0
  9 10  1  0
 10 11  1  0
 10 12  2  0
  9 13  1  0
 13 14  1  0
 13 15  2  0
  9 16  1  0
 16 17  1  0
 16 18  2  0
  8 19  1  0
  4 20  1  0
 20 21  1  0
 20 22  2  0
  4 23  1  0
 23 24  1  0
 23 25  2  0
 19  5  1  0
M  CHG  8   1  -1   2   1  10   1  11  -1  13   1  14  -1  16   1  17  -1
M  CHG  4  20   1  21  -1  23   1  24  -1
M  END
$$$$
