
     RDKit          3D

 32 33  0  0  0  0  0  0  0  0999 V2000
    5.9032    0.4592   -0.5069 O   0  0  0  0  0  1  0  0  0  0  0  0
    4.8893    1.1342   -0.7532 N   0  0  0  0  0  4  0  0  0  0  0  0
    4.8958    2.0662   -1.5659 O   0  0  0  0  0  0  0  0  0  0  0  0
    3.7272    0.8762   -0.1256 N   0  0  0  0  0  0  0  0  0  0  0  0
    3.5163   -0.3399    0.2293 C   0  0  0  0  0  0  0  0  0  0  0  0
    4.2261   -1.5025    0.1295 N   0  0  0  0  0  0  0  0  0  0  0  0
    3.6058   -2.5818    0.6758 N   0  0  0  0  0  0  0  0  0  0  0  0
    2.4634   -2.1916    1.0728 N   0  0  0  0  0  0  0  0  0  0  0  0
    2.4036   -0.8379    0.8586 N   0  0  0  0  0  0  0  0  0  0  0  0
    1.1459   -0.1485    1.0528 C   0  0  0  0  0  0  0  0  0  0  0  0
    0.3078   -0.1985   -0.2250 C   0  0  0  0  0  0  0  0  0  0  0  0
   -1.0464    0.3104   -0.0503 N   0  0  0  0  0  0  0  0  0  0  0  0
   -1.2240    1.3774    0.7643 N   0  0  0  0  0  0  0  0  0  0  0  0
   -2.5585    1.4764    0.8778 C   0  0  0  0  0  0  0  0  0  0  0  0
   -3.0872    2.5469    1.6765 N   0  0  0  0  0  4  0  0  0  0  0  0
   -3.7617    3.3929    1.0760 O   0  0  0  0  0  1  0  0  0  0  0  0
   -2.8328    2.5229    2.8874 O   0  0  0  0  0  0  0  0  0  0  0  0
   -3.2341    0.5013    0.1436 C   0  0  0  0  0  0  0  0  0  0  0  0
   -4.6381    0.2725    0.0837 N   0  0  0  0  0  4  0  0  0  0  0  0
   -5.0284   -0.5366   -0.7682 O   0  0  0  0  0  1  0  0  0  0  0  0
   -5.3408    0.8521    0.9138 O   0  0  0  0  0  0  0  0  0  0  0  0
   -2.2436   -0.2063   -0.5306 C   0  0  0  0  0  0  0  0  0  0  0  0
   -2.3600   -1.2457   -1.4191 N   0  0  0  0  0  0  0  0  0  0  0  0
   -1.6984   -1.3655   -2.6108 N   0  0  0  0  0  4  0  0  0  0  0  0
   -2.1250   -2.2729   -3.3205 O   0  0  0  0  0  1  0  0  0  0  0  0
   -0.7874   -0.5766   -2.8577 O   0  0  0  0  0  0  0  0  0  0  0  0
    5.2104   -1.5222   -0.1197 H   0  0  0  0  0  0  0  0  0  0  0  0
    0.5984   -0.6121    1.8835 H   0  0  0  0  0  0  0  0  0  0  0  0
    1.3369    0.8894    1.3514 H   0  0  0  0  0  0  0  0  0  0  0  0
    0.7728    0.4030   -1.0136 H   0  0  0  0  0  0  0  0  0  0  0  0
    0.2346   -1.2361   -0.5661 H   0  0  0  0  0  0  0  0  0  0  0  0
   -3.2712   -1.7062   -1.4675 H   0  0  0  0  0  0  0  0  0  0  0  0
  1  2  1  0
  2  3  2  0
  2  4  1  0
  4  5  2  3
  5  6  1  0
  6  7  1  0
  7  8  2  0
  8  9  1  0
  9 10  1  0
 10 11  1  0
 11 12  1  0
 12 13  1  0
 13 14  2  0
 14 15  1  0
 15 16  1  0
 15 17  2  0
 14 18  1  0
 18 19  1  0
 19 20  1  0
 19 21  2  0
 18 22  2  0
 22 23  1  0
 23 24  1  0
 24 25  1  0
 24 26  2  0
  9  5  1  0
 22 12  1  0
  6 27  1  0
 10 28  1  0
 10 29  1  0
 11 30  1  0
 11 31  1  0
 23 32  1  0
M  CHG  8   1  -1   2   1  15   1  16  -1  19   1  20  -1  24   1  25  -1
M  END
$$$$
