
     RDKit          3D

 30 31  0  0  0  0  0  0  0  0999 V2000
   -2.9422   -1.9907    3.4102 N   0  0  0  0  0  2  0  0  0  0  0  0
   -2.3549   -1.1621    2.8935 N   0  0  0  0  0  4  0  0  0  0  0  0
   -1.6770   -0.2706    2.3329 N   0  0  0  0  0  0  0  0  0  0  0  0
   -1.6679   -0.4013    0.9783 C   0  0  0  0  0  0  0  0  0  0  0  0
   -2.5858   -0.1481   -0.0341 C   0  0  0  0  0  0  0  0  0  0  0  0
   -3.8984    0.3702    0.1083 N   0  0  0  0  0  4  0  0  0  0  0  0
   -4.2720    1.1674   -0.7571 O   0  0  0  0  0  1  0  0  0  0  0  0
   -4.5429    0.0007    1.0949 O   0  0  0  0  0  0  0  0  0  0  0  0
   -1.9318   -0.4622   -1.2292 C   0  0  0  0  0  0  0  0  0  0  0  0
   -2.4479   -0.4656   -2.5729 N   0  0  0  0  0  4  0  0  0  0  0  0
   -3.5659   -0.9765   -2.7220 O   0  0  0  0  0  1  0  0  0  0  0  0
   -1.7434    0.0307   -3.4618 O   0  0  0  0  0  0  0  0  0  0  0  0
   -0.6727   -0.8880   -1.0291 N   0  0  0  0  0  0  0  0  0  0  0  0
   -0.5142   -0.7639    0.3064 N   0  0  0  0  0  0  0  0  0  0  0  0
    0.7971   -1.0109    0.8855 C   0  0  0  0  0  0  0  0  0  0  0  0
    1.5252    0.2673    1.3096 C   0  0  0  0  0  0  0  0  0  0  0  0
    1.7710    1.1762    0.1974 N   0  0  0  0  0  0  0  0  0  0  0  0
    0.7316    2.0426   -0.0980 N   0  0  0  0  0  0  0  0  0  0  0  0
    0.8746    2.4256   -1.2972 N   0  0  0  0  0  0  0  0  0  0  0  0
    1.9694    1.7965   -1.7810 N   0  0  0  0  0  0  0  0  0  0  0  0
    2.6075    0.9877   -0.8865 C   0  0  0  0  0  0  0  0  0  0  0  0
    3.6776    0.3337   -1.1660 N   0  0  0  0  0  0  0  0  0  0  0  0
    4.2281   -0.3189   -0.1452 N   0  0  0  0  0  4  0  0  0  0  0  0
    4.9958    0.2942    0.6070 O   0  0  0  0  0  1  0  0  0  0  0  0
    3.9320   -1.5099    0.0218 O   0  0  0  0  0  0  0  0  0  0  0  0
    0.6484   -1.6681    1.7496 H   0  0  0  0  0  0  0  0  0  0  0  0
    1.3729   -1.5743    0.1448 H   0  0  0  0  0  0  0  0  0  0  0  0
    2.4680    0.0069    1.7997 H   0  0  0  0  0  0  0  0  0  0  0  0
    0.9407    0.7921    2.0760 H   0  0  0  0  0  0  0  0  0  0  0  0
    2.2770    1.9191   -2.7357 H   0  0  0  0  0  0  0  0  0  0  0  0
  1  2  2  0
  2  3  2  0
  3  4  1  0
  4  5  2  0
  5  6  1  0
  6  7  1  0
  6  8  2  0
  5  9  1  0
  9 10  1  0
 10 11  1  0
 10 12  2  0
  9 13  2  0
 13 14  1  0
 14 15  1  0
 15 16  1  0
 16 17  1  0
 17 18  1  0
 18 19  2  0
 19 20  1  0
 20 21  1  0
 21 22  2  3
 22 23  1  0
 23 24  1  0
 23 25  2  0
 14  4  1  0
 21 17  1  0
 15 26  1  0
 15 27  1  0
 16 28  1  0
 16 29  1  0
 20 30  1  0
M  CHG  8   1  -1   2   1   6   1   7  -1  10   1  11  -1  23   1  24  -1
M  END
$$$$
