
     RDKit          3D

 24 26  0  0  0  0  0  0  0  0999 V2000
   -4.4981    2.4465    1.4307 N   0  0  0  0  0  2  0  0  0  0  0  0
   -3.9905    1.4450    1.6265 N   0  0  0  0  0  4  0  0  0  0  0  0
   -3.4069    0.3601    1.8406 N   0  0  0  0  0  0  0  0  0  0  0  0
   -2.6233   -0.0181    0.7914 C   0  0  0  0  0  0  0  0  0  0  0  0
   -2.8438   -0.5691   -0.4708 C   0  0  0  0  0  0  0  0  0  0  0  0
   -4.1136   -0.8961   -1.0804 N   0  0  0  0  0  4  0  0  0  0  0  0
   -4.0918   -1.5327   -2.1402 O   0  0  0  0  0  1  0  0  0  0  0  0
   -5.1314   -0.5059   -0.4933 O   0  0  0  0  0  0  0  0  0  0  0  0
   -1.6611   -0.8050   -1.1553 N   0  0  0  0  0  0  0  0  0  0  0  0
   -0.7336   -0.4262   -0.3134 C   0  0  0  0  0  0  0  0  0  0  0  0
    0.6719   -0.4288   -0.4274 C   0  0  0  0  0  0  0  0  0  0  0  0
    1.4501   -0.8108   -1.4077 N   0  0  0  0  0  0  0  0  0  0  0  0
    2.7286   -0.5795   -0.9229 C   0  0  0  0  0  0  0  0  0  0  0  0
    3.8823   -0.9110   -1.7292 N   0  0  0  0  0  4  0  0  0  0  0  0
    3.6875   -1.5471   -2.7714 O   0  0  0  0  0  1  0  0  0  0  0  0
    4.9829   -0.5247   -1.3140 O   0  0  0  0  0  0  0  0  0  0  0  0
    2.7165   -0.0281    0.3581 C   0  0  0  0  0  0  0  0  0  0  0  0
    3.6604    0.3471    1.2672 N   0  0  0  0  0  0  0  0  0  0  0  0
    4.2058    1.4298    0.9614 N   0  0  0  0  0  4  0  0  0  0  0  0
    4.6790    2.4295    0.6859 N   0  0  0  0  0  2  0  0  0  0  0  0
    1.3647    0.0435    0.6573 N   0  0  0  0  0  0  0  0  0  0  0  0
    0.7873    0.5154    1.8176 N   0  0  0  0  0  0  0  0  0  0  0  0
   -0.4821    0.5177    1.9205 N   0  0  0  0  0  0  0  0  0  0  0  0
   -1.2408    0.0483    0.8687 N   0  0  0  0  0  0  0  0  0  0  0  0
  1  2  2  0
  2  3  2  0
  3  4  1  0
  4  5  2  0
  5  6  1  0
  6  7  1  0
  6  8  2  0
  5  9  1  0
  9 10  2  0
 10 11  1  0
 11 12  2  0
 12 13  1  0
 13 14  1  0
 14 15  1  0
 14 16  2  0
 13 17  2  0
 17 18  1  0
 18 19  2  0
 19 20  2  0
 17 21  1  0
 21 22  1  0
 22 23  2  0
 23 24  1  0
 21 11  1  0
 24  4  1  0
 24 10  1  0
M  CHG  8   1  -1   2   1   6   1   7  -1  14   1  15  -1  19   1  20  -1
M  END
$$$$
