
     RDKit          3D

 23 25  0  0  0  0  0  0  0  0999 V2000
    4.3634   -0.2816   -1.5591 O   0  0  0  0  0  1  0  0  0  0  0  0
    3.3415   -0.9547   -1.7489 N   0  0  0  0  0  4  0  0  0  0  0  0
    2.8693   -1.2442   -2.8563 O   0  0  0  0  0  0  0  0  0  0  0  0
    2.6439   -1.4851   -0.5527 C   0  0  0  0  0  0  0  0  0  0  0  0
    1.3902   -0.8188   -0.2804 N   0  0  0  0  0  0  0  0  0  0  0  0
    0.2122   -1.4732   -0.3857 N   0  0  0  0  0  0  0  0  0  0  0  0
   -0.6640   -0.5348    0.0185 C   0  0  0  0  0  0  0  0  0  0  0  0
   -2.1793   -0.8313    0.0245 C   0  0  0  0  0  0  0  0  0  0  0  0
   -3.1656   -0.0499    0.3989 N   0  0  0  0  0  0  0  0  0  0  0  0
   -4.3194   -0.7780    0.2177 N   0  0  0  0  0  0  0  0  0  0  0  0
   -4.0500   -1.9854   -0.2608 N   0  0  0  0  0  0  0  0  0  0  0  0
   -2.7174   -2.0154   -0.3834 N   0  0  0  0  0  0  0  0  0  0  0  0
    0.0376    0.6309    0.3957 C   0  0  0  0  0  0  0  0  0  0  0  0
   -0.4857    1.9797    0.9347 C   0  0  0  0  0  0  0  0  0  0  0  0
   -1.7251    2.3411    1.1733 N   0  0  0  0  0  0  0  0  0  0  0  0
   -1.6620    3.6321    1.6460 N   0  0  0  0  0  0  0  0  0  0  0  0
   -0.4074    4.0595    1.6969 N   0  0  0  0  0  0  0  0  0  0  0  0
    0.3235    3.0304    1.2508 N   0  0  0  0  0  0  0  0  0  0  0  0
    1.3577    0.4313    0.2292 N   0  0  0  0  0  0  0  0  0  0  0  0
    3.2959   -1.3653    0.3182 H   0  0  0  0  0  0  0  0  0  0  0  0
    2.4614   -2.5505   -0.7247 H   0  0  0  0  0  0  0  0  0  0  0  0
   -2.2513   -2.8398   -0.7390 H   0  0  0  0  0  0  0  0  0  0  0  0
    1.3306    3.1031    1.1862 H   0  0  0  0  0  0  0  0  0  0  0  0
  1  2  1  0
  2  3  2  0
  2  4  1  0
  4  5  1  0
  5  6  1  0
  6  7  2  0
  7  8  1  0
  8  9  2  0
  9 10  1  0
 10 11  2  0
 11 12  1  0
  7 13  1  0
 13 14  1  0
 14 15  2  0
 15 16  1  0
 16 17  2  0
 17 18  1  0
 13 19  2  0
 12  8  1  0
 18 14  1  0
 19  5  1  0
  4 20  1  0
  4 21  1  0
 12 22  1  0
 18 23  1  0
M  CHG  2   1  -1   2   1
M  END
$$$$
