
     RDKit          3D

 20 21  0  0  0  0  0  0  0  0999 V2000
   -5.0042    0.2973    0.6270 O   0  0  0  0  0  1  0  0  0  0  0  0
   -3.9814    0.9569    0.4103 N   0  0  0  0  0  4  0  0  0  0  0  0
   -3.8195    2.1673    0.2399 O   0  0  0  0  0  0  0  0  0  0  0  0
   -2.7692    0.1426    0.3497 N   0  0  0  0  0  0  0  0  0  0  0  0
   -2.6761   -1.2215    0.5051 C   0  0  0  0  0  0  0  0  0  0  0  0
   -1.3427   -1.5320    0.3664 C   0  0  0  0  0  0  0  0  0  0  0  0
   -0.6983   -0.2931    0.1286 C   0  0  0  0  0  0  0  0  0  0  0  0
    0.7537   -0.1219   -0.0850 C   0  0  0  0  0  0  0  0  0  0  0  0
    1.7035   -1.1729   -0.0818 C   0  0  0  0  0  0  0  0  0  0  0  0
    2.9140   -0.5625   -0.3173 C   0  0  0  0  0  0  0  0  0  0  0  0
    2.6460    0.7810   -0.4469 N   0  0  0  0  0  0  0  0  0  0  0  0
    3.6068    1.8515   -0.7058 N   0  0  0  0  0  4  0  0  0  0  0  0
    3.1321    2.9868   -0.7825 O   0  0  0  0  0  1  0  0  0  0  0  0
    4.7712    1.4498   -0.8106 O   0  0  0  0  0  0  0  0  0  0  0  0
    1.3282    1.0681   -0.3075 N   0  0  0  0  0  0  0  0  0  0  0  0
   -1.5676    0.7267    0.1185 N   0  0  0  0  0  0  0  0  0  0  0  0
   -3.5513   -1.8275    0.6957 H   0  0  0  0  0  0  0  0  0  0  0  0
   -0.9066   -2.5193    0.4299 H   0  0  0  0  0  0  0  0  0  0  0  0
    1.5402   -2.2308    0.0699 H   0  0  0  0  0  0  0  0  0  0  0  0
    3.9213   -0.9465   -0.4036 H   0  0  0  0  0  0  0  0  0  0  0  0
  1  2  1  0
  2  3  2  0
  2  4  1  0
  4  5  1  0
  5  6  2  0
  6  7  1  0
  7  8  1  0
  8  9  1  0
  9 10  2  0
 10 11  1  0
 11 12  1  0
 12 13  1  0
 12 14  2  0
 11 15  1  0
  7 16  2  0
 15  8  2  0
 16  4  1  0
  5 17  1  0
  6 18  1  0
  9 19  1  0
 10 20  1  0
M  CHG  4   1  -1   2   1  12   1  13  -1
M  END
$$$$
