
     RDKit          3D

 24 25  0  0  0  0  0  0  0  0999 V2000
   -4.7386   -0.3986   -0.9858 O   0  0  0  0  0  1  0  0  0  0  0  0
   -4.3371   -0.2248    0.1729 N   0  0  0  0  0  4  0  0  0  0  0  0
   -5.0367    0.0101    1.1655 O   0  0  0  0  0  0  0  0  0  0  0  0
   -2.9099   -0.2996    0.3575 C   0  0  0  0  0  0  0  0  0  0  0  0
   -2.4313   -1.0572    1.3558 N   0  0  0  0  0  0  0  0  0  0  0  0
   -1.0988   -0.9790    1.1977 N   0  0  0  0  0  0  0  0  0  0  0  0
   -0.6931   -0.2124    0.1190 C   0  0  0  0  0  0  0  0  0  0  0  0
    0.6983   -0.0198   -0.2272 C   0  0  0  0  0  0  0  0  0  0  0  0
    1.1134    0.3291   -1.5008 N   0  0  0  0  0  0  0  0  0  0  0  0
    2.4450    0.4491   -1.6394 N   0  0  0  0  0  0  0  0  0  0  0  0
    2.9124    0.1886   -0.4093 C   0  0  0  0  0  0  0  0  0  0  0  0
    4.3388    0.1479   -0.2088 N   0  0  0  0  0  4  0  0  0  0  0  0
    4.7664   -0.8363    0.4099 O   0  0  0  0  0  1  0  0  0  0  0  0
    5.0121    1.0847   -0.6549 O   0  0  0  0  0  0  0  0  0  0  0  0
    1.8865   -0.1060    0.4985 C   0  0  0  0  0  0  0  0  0  0  0  0
    2.0645   -0.3938    1.8796 N   0  0  0  0  0  4  0  0  0  0  0  0
    1.3234   -1.2584    2.3636 O   0  0  0  0  0  1  0  0  0  0  0  0
    2.9053    0.2764    2.4824 O   0  0  0  0  0  0  0  0  0  0  0  0
   -1.8896    0.2442   -0.4340 C   0  0  0  0  0  0  0  0  0  0  0  0
   -2.0806    1.1105   -1.5454 N   0  0  0  0  0  4  0  0  0  0  0  0
   -2.9557    1.9713   -1.4341 O   0  0  0  0  0  1  0  0  0  0  0  0
   -1.3166    0.9533   -2.5059 O   0  0  0  0  0  0  0  0  0  0  0  0
   -0.5075   -1.4777    1.8654 H   0  0  0  0  0  0  0  0  0  0  0  0
    0.5295    0.4984   -2.3220 H   0  0  0  0  0  0  0  0  0  0  0  0
  1  2  1  0
  2  3  2  0
  2  4  1  0
  4  5  2  0
  5  6  1  0
  6  7  1  0
  7  8  1  0
  8  9  1  0
  9 10  1  0
 10 11  2  0
 11 12  1  0
 12 13  1  0
 12 14  2  0
 11 15  1  0
 15 16  1  0
 16 17  1  0
 16 18  2  0
  7 19  2  0
 19 20  1  0
 20 21  1  0
 20 22  2  0
 15  8  2  0
 19  4  1  0
  6 23  1  0
  9 24  1  0
M  CHG  8   1  -1   2   1  12   1  13  -1  16   1  17  -1  20   1  21  -1
M  END
$$$$
