
     RDKit          3D

 20 21  0  0  0  0  0  0  0  0999 V2000
   -1.8383    2.0319   -0.3068 O   0  0  0  0  0  1  0  0  0  0  0  0
   -2.3417    1.0297   -0.8286 N   0  0  0  0  0  4  0  0  0  0  0  0
   -3.3048    1.0206   -1.6069 O   0  0  0  0  0  0  0  0  0  0  0  0
   -1.8165   -0.2405   -0.4481 C   0  0  0  0  0  0  0  0  0  0  0  0
   -2.5481   -1.3982   -0.2659 C   0  0  0  0  0  0  0  0  0  0  0  0
   -1.6508   -2.3436    0.1361 N   0  0  0  0  0  0  0  0  0  0  0  0
   -0.3863   -1.8898    0.2035 N   0  0  0  0  0  0  0  0  0  0  0  0
   -0.4879   -0.5992   -0.1547 C   0  0  0  0  0  0  0  0  0  0  0  0
    0.6826    0.2696   -0.2870 C   0  0  0  0  0  0  0  0  0  0  0  0
    0.9081    1.0067   -1.3871 N   0  0  0  0  0  0  0  0  0  0  0  0
    2.0963    1.5895   -1.1467 N   0  0  0  0  0  0  0  0  0  0  0  0
    2.6417    1.2398    0.0536 C   0  0  0  0  0  0  0  0  0  0  0  0
    1.7293    0.3882    0.6460 C   0  0  0  0  0  0  0  0  0  0  0  0
    1.8523   -0.2013    1.9388 N   0  0  0  0  0  4  0  0  0  0  0  0
    2.9969   -0.4994    2.3054 O   0  0  0  0  0  1  0  0  0  0  0  0
    0.8213   -0.3106    2.6136 O   0  0  0  0  0  0  0  0  0  0  0  0
   -3.6018   -1.6169   -0.3717 H   0  0  0  0  0  0  0  0  0  0  0  0
   -1.8262   -3.3156    0.3765 H   0  0  0  0  0  0  0  0  0  0  0  0
    2.4770    2.2141   -1.8526 H   0  0  0  0  0  0  0  0  0  0  0  0
    3.5969    1.6251    0.3827 H   0  0  0  0  0  0  0  0  0  0  0  0
  1  2  1  0
  2  3  2  0
  2  4  1  0
  4  5  2  0
  5  6  1  0
  6  7  1  0
  7  8  2  0
  8  9  1  0
  9 10  2  0
 10 11  1  0
 11 12  1  0
 12 13  2  0
 13 14  1  0
 14 15  1  0
 14 16  2  0
  8  4  1  0
 13  9  1  0
  5 17  1  0
  6 18  1  0
 11 19  1  0
 12 20  1  0
M  CHG  4   1  -1   2   1  14   1  15  -1
M  END
$$$$
