
     RDKit          3D

 24 25  0  0  0  0  0  0  0  0999 V2000
   -4.3643   -0.9487    1.7949 O   0  0  0  0  0  1  0  0  0  0  0  0
   -4.2582   -0.0694    0.9275 N   0  0  0  0  0  4  0  0  0  0  0  0
   -5.1870    0.5995    0.4588 O   0  0  0  0  0  0  0  0  0  0  0  0
   -2.9087    0.1772    0.4440 C   0  0  0  0  0  0  0  0  0  0  0  0
   -1.7130   -0.4547    0.8499 C   0  0  0  0  0  0  0  0  0  0  0  0
   -0.7132    0.1242    0.0888 C   0  0  0  0  0  0  0  0  0  0  0  0
    0.6942   -0.1746    0.1394 C   0  0  0  0  0  0  0  0  0  0  0  0
    1.5415   -0.0024    1.2195 C   0  0  0  0  0  0  0  0  0  0  0  0
    2.8073   -0.4473    0.7796 C   0  0  0  0  0  0  0  0  0  0  0  0
    4.0548   -0.4727    1.5273 N   0  0  0  0  0  4  0  0  0  0  0  0
    5.0694   -0.9114    0.9722 O   0  0  0  0  0  1  0  0  0  0  0  0
    3.9917   -0.0460    2.6895 O   0  0  0  0  0  0  0  0  0  0  0  0
    2.7849   -0.9006   -0.4814 N   0  0  0  0  0  0  0  0  0  0  0  0
    1.4887   -0.7286   -0.8685 N   0  0  0  0  0  0  0  0  0  0  0  0
    1.0893   -1.1853   -2.2078 N   0  0  0  0  0  4  0  0  0  0  0  0
   -0.1131   -1.0278   -2.4457 O   0  0  0  0  0  1  0  0  0  0  0  0
    1.9930   -1.6698   -2.8900 O   0  0  0  0  0  0  0  0  0  0  0  0
   -1.3583    1.0762   -0.7058 N   0  0  0  0  0  0  0  0  0  0  0  0
   -0.7696    2.0374   -1.6500 N   0  0  0  0  0  4  0  0  0  0  0  0
    0.4600    1.9526   -1.7396 O   0  0  0  0  0  1  0  0  0  0  0  0
   -1.5712    2.7937   -2.1998 O   0  0  0  0  0  0  0  0  0  0  0  0
   -2.7044    1.1152   -0.4911 N   0  0  0  0  0  0  0  0  0  0  0  0
   -1.6080   -1.2355    1.5935 H   0  0  0  0  0  0  0  0  0  0  0  0
    1.2941    0.3989    2.1949 H   0  0  0  0  0  0  0  0  0  0  0  0
  1  2  1  0
  2  3  2  0
  2  4  1  0
  4  5  1  0
  5  6  2  0
  6  7  1  0
  7  8  2  0
  8  9  1  0
  9 10  1  0
 10 11  1  0
 10 12  2  0
  9 13  2  0
 13 14  1  0
 14 15  1  0
 15 16  1  0
 15 17  2  0
  6 18  1  0
 18 19  1  0
 19 20  1  0
 19 21  2  0
 18 22  1  0
 14  7  1  0
 22  4  2  0
  5 23  1  0
  8 24  1  0
M  CHG  8   1  -1   2   1  10   1  11  -1  15   1  16  -1  19   1  20  -1
M  END
$$$$
