
     RDKit          3D

 21 21  0  0  0  0  0  0  0  0999 V2000
   -3.5150    0.5090    0.1257 C   0  0  0  0  0  0  0  0  0  0  0  0
   -2.0906   -0.0046    0.2355 C   0  0  0  0  0  0  0  0  0  0  0  0
   -1.0872    0.9844   -0.3473 C   0  0  0  0  0  0  0  0  0  0  0  0
    0.2503    0.4871   -0.1744 O   0  0  0  0  0  0  0  0  0  0  0  0
    0.7087   -0.3519   -1.1589 C   0  0  0  0  0  0  0  0  0  0  0  0
    0.0408   -0.6645   -2.1395 O   0  0  0  0  0  0  0  0  0  0  0  0
    2.0657   -0.8161   -0.9157 C   0  0  0  0  0  0  0  0  0  0  0  0
    2.7181   -1.5668   -1.8168 N   0  0  0  0  0  0  0  0  0  0  0  0
    3.9635   -1.8106   -1.2583 O   0  0  0  0  0  0  0  0  0  0  0  0
    4.0833   -1.2087   -0.0154 N   0  0  0  0  0  0  0  0  0  0  0  0
    2.9167   -0.6051    0.1979 C   0  0  0  0  0  0  0  0  0  0  0  0
    2.6307    0.0902    1.3176 N   0  0  0  0  0  0  0  0  0  0  0  0
   -4.2141   -0.2168    0.5527 H   0  0  0  0  0  0  0  0  0  0  0  0
   -3.7927    0.6735   -0.9203 H   0  0  0  0  0  0  0  0  0  0  0  0
   -3.6343    1.4536    0.6659 H   0  0  0  0  0  0  0  0  0  0  0  0
   -2.0074   -0.9702   -0.2763 H   0  0  0  0  0  0  0  0  0  0  0  0
   -1.8445   -0.1991    1.2862 H   0  0  0  0  0  0  0  0  0  0  0  0
   -1.2944    1.2071   -1.4008 H   0  0  0  0  0  0  0  0  0  0  0  0
   -1.1411    1.9351    0.1944 H   0  0  0  0  0  0  0  0  0  0  0  0
    3.3985    0.3400    1.9334 H   0  0  0  0  0  0  0  0  0  0  0  0
    1.8451    0.7343    1.3474 H   0  0  0  0  0  0  0  0  0  0  0  0
  1  2  1  0
  2  3  1  0
  3  4  1  0
  4  5  1  0
  5  6  2  0
  5  7  1  0
  7  8  2  0
  8  9  1  0
  9 10  1  0
 10 11  2  0
 11 12  1  0
 11  7  1  0
  1 13  1  0
  1 14  1  0
  1 15  1  0
  2 16  1  0
  2 17  1  0
  3 18  1  0
  3 19  1  0
 12 20  1  0
 12 21  1  0
M  END
$$$$
