
     RDKit          3D

 16 17  0  0  0  0  0  0  0  0999 V2000
    3.6368    0.5351    0.1995 N   0  0  0  0  0  0  0  0  0  0  0  0
    2.3621    0.1916    0.3909 C   0  0  0  0  0  0  0  0  0  0  0  0
    1.8701   -0.5257    1.4007 N   0  0  0  0  0  0  0  0  0  0  0  0
    0.5098   -0.5907    1.1102 O   0  0  0  0  0  0  0  0  0  0  0  0
    0.3232    0.0944   -0.0639 C   0  0  0  0  0  0  0  0  0  0  0  0
   -1.0713    0.2638   -0.7334 C   0  0  0  0  0  0  0  0  0  0  0  0
   -1.2608    0.9280   -1.8771 N   0  0  0  0  0  0  0  0  0  0  0  0
   -2.6278    0.8325   -2.1151 O   0  0  0  0  0  0  0  0  0  0  0  0
   -3.2673    0.1144   -1.1114 N   0  0  0  0  0  0  0  0  0  0  0  0
   -2.3052   -0.2354   -0.2596 C   0  0  0  0  0  0  0  0  0  0  0  0
   -2.5200   -0.9522    0.8641 N   0  0  0  0  0  0  0  0  0  0  0  0
    1.4528    0.5820   -0.5383 N   0  0  0  0  0  0  0  0  0  0  0  0
    4.3436   -0.0091    0.6776 H   0  0  0  0  0  0  0  0  0  0  0  0
    3.8943    0.8141   -0.7394 H   0  0  0  0  0  0  0  0  0  0  0  0
   -3.4838   -1.0750    1.1629 H   0  0  0  0  0  0  0  0  0  0  0  0
   -1.8565   -0.9677    1.6324 H   0  0  0  0  0  0  0  0  0  0  0  0
  1  2  1  0
  2  3  2  0
  3  4  1  0
  4  5  1  0
  5  6  1  0
  6  7  2  0
  7  8  1  0
  8  9  1  0
  9 10  2  0
 10 11  1  0
  5 12  2  0
 10  6  1  0
 12  2  1  0
  1 13  1  0
  1 14  1  0
 11 15  1  0
 11 16  1  0
M  END
$$$$
