
     RDKit          3D

 28 30  0  0  0  0  0  0  0  0999 V2000
   -5.0095   -1.0925    0.6483 O   0  0  0  0  0  1  0  0  0  0  0  0
   -4.3230   -0.3837   -0.0982 N   0  0  0  0  0  4  0  0  0  0  0  0
   -4.7438    0.4450   -0.9159 O   0  0  0  0  0  0  0  0  0  0  0  0
   -2.8909   -0.5282   -0.0261 C   0  0  0  0  0  0  0  0  0  0  0  0
   -2.3723   -1.7692   -0.0861 N   0  0  0  0  0  0  0  0  0  0  0  0
   -1.0522   -1.5410   -0.1320 N   0  0  0  0  0  0  0  0  0  0  0  0
   -0.1287   -2.6194   -0.4538 C   0  0  0  0  0  0  0  0  0  0  0  0
    1.2817   -2.3322    0.0393 C   0  0  0  0  0  0  0  0  0  0  0  0
    1.6258   -0.9222   -0.0742 N   0  0  0  0  0  0  0  0  0  0  0  0
    2.9095   -0.5375   -0.1069 N   0  0  0  0  0  0  0  0  0  0  0  0
    2.8283    0.7973    0.0486 C   0  0  0  0  0  0  0  0  0  0  0  0
    4.0532    1.5423    0.1952 N   0  0  0  0  0  4  0  0  0  0  0  0
    4.0974    2.3310    1.1481 O   0  0  0  0  0  1  0  0  0  0  0  0
    4.9533    1.3342   -0.6281 O   0  0  0  0  0  0  0  0  0  0  0  0
    1.5023    1.2431    0.1739 C   0  0  0  0  0  0  0  0  0  0  0  0
    1.1179    2.5765    0.4615 N   0  0  0  0  0  4  0  0  0  0  0  0
    1.6344    3.4596   -0.2278 O   0  0  0  0  0  1  0  0  0  0  0  0
    0.3148    2.7208    1.3891 O   0  0  0  0  0  0  0  0  0  0  0  0
    0.7117    0.1129    0.0144 C   0  0  0  0  0  0  0  0  0  0  0  0
   -0.6890   -0.2102   -0.0225 C   0  0  0  0  0  0  0  0  0  0  0  0
   -1.9007    0.4678   -0.0306 C   0  0  0  0  0  0  0  0  0  0  0  0
   -2.1513    1.8614   -0.0901 N   0  0  0  0  0  4  0  0  0  0  0  0
   -2.9772    2.3072    0.7105 O   0  0  0  0  0  1  0  0  0  0  0  0
   -1.5276    2.4878   -0.9532 O   0  0  0  0  0  0  0  0  0  0  0  0
   -0.5132   -3.5482   -0.0201 H   0  0  0  0  0  0  0  0  0  0  0  0
   -0.1446   -2.7089   -1.5465 H   0  0  0  0  0  0  0  0  0  0  0  0
    1.3754   -2.5768    1.1040 H   0  0  0  0  0  0  0  0  0  0  0  0
    2.0186   -2.9167   -0.5210 H   0  0  0  0  0  0  0  0  0  0  0  0
  1  2  1  0
  2  3  2  0
  2  4  1  0
  4  5  2  0
  5  6  1  0
  6  7  1  0
  7  8  1  0
  8  9  1  0
  9 10  1  0
 10 11  2  0
 11 12  1  0
 12 13  1  0
 12 14  2  0
 11 15  1  0
 15 16  1  0
 16 17  1  0
 16 18  2  0
 15 19  2  0
 19 20  1  0
 20 21  2  0
 21 22  1  0
 22 23  1  0
 22 24  2  0
 19  9  1  0
 20  6  1  0
 21  4  1  0
  7 25  1  0
  7 26  1  0
  8 27  1  0
  8 28  1  0
M  CHG  8   1  -1   2   1  12   1  13  -1  16   1  17  -1  22   1  23  -1
M  END
$$$$
