
     RDKit          3D

 22 24  0  0  0  0  0  0  0  0999 V2000
   -4.0332    2.7147    0.5701 O   0  0  0  0  0  1  0  0  0  0  0  0
   -4.0238    1.4778    0.6567 N   0  0  0  0  0  4  0  0  0  0  0  0
   -5.0123    0.7729    0.9152 O   0  0  0  0  0  0  0  0  0  0  0  0
   -2.7480    0.8067    0.4388 C   0  0  0  0  0  0  0  0  0  0  0  0
   -1.5837    1.4884    0.1374 N   0  0  0  0  0  0  0  0  0  0  0  0
   -0.7139    0.5132    0.0301 C   0  0  0  0  0  0  0  0  0  0  0  0
    0.6719    0.5272   -0.2613 C   0  0  0  0  0  0  0  0  0  0  0  0
    1.4632    1.4985   -0.6480 N   0  0  0  0  0  0  0  0  0  0  0  0
    2.6811    0.8537   -0.7590 C   0  0  0  0  0  0  0  0  0  0  0  0
    3.9023    1.5350   -1.1710 N   0  0  0  0  0  4  0  0  0  0  0  0
    3.8132    2.7433   -1.4353 O   0  0  0  0  0  1  0  0  0  0  0  0
    4.9462    0.8661   -1.2324 O   0  0  0  0  0  0  0  0  0  0  0  0
    2.6767   -0.4636   -0.4589 N   0  0  0  0  0  0  0  0  0  0  0  0
    1.3844   -0.6355   -0.1519 N   0  0  0  0  0  0  0  0  0  0  0  0
    0.8365   -1.8844    0.3481 C   0  0  0  0  0  0  0  0  0  0  0  0
   -0.6808   -1.9777    0.1244 C   0  0  0  0  0  0  0  0  0  0  0  0
   -1.3311   -0.6859    0.2598 N   0  0  0  0  0  0  0  0  0  0  0  0
   -2.6364   -0.5372    0.5207 N   0  0  0  0  0  0  0  0  0  0  0  0
    1.3555   -2.7140   -0.1421 H   0  0  0  0  0  0  0  0  0  0  0  0
    1.0675   -1.9066    1.4194 H   0  0  0  0  0  0  0  0  0  0  0  0
   -0.8972   -2.3180   -0.8949 H   0  0  0  0  0  0  0  0  0  0  0  0
   -1.1382   -2.6745    0.8338 H   0  0  0  0  0  0  0  0  0  0  0  0
  1  2  1  0
  2  3  2  0
  2  4  1  0
  4  5  1  0
  5  6  2  0
  6  7  1  0
  7  8  2  0
  8  9  1  0
  9 10  1  0
 10 11  1  0
 10 12  2  0
  9 13  2  0
 13 14  1  0
 14 15  1  0
 15 16  1  0
 16 17  1  0
 17 18  1  0
 14  7  1  0
 17  6  1  0
 18  4  2  0
 15 19  1  0
 15 20  1  0
 16 21  1  0
 16 22  1  0
M  CHG  4   1  -1   2   1  10   1  11  -1
M  END
$$$$
