
     RDKit          3D

 25 27  0  0  0  0  0  0  0  0999 V2000
   -2.7016    4.1815   -0.1600 O   0  0  0  0  0  1  0  0  0  0  0  0
   -3.2146    3.0525   -0.1727 N   0  0  0  0  0  4  0  0  0  0  0  0
   -4.4311    2.8235   -0.2705 O   0  0  0  0  0  0  0  0  0  0  0  0
   -2.3146    1.9120   -0.0643 C   0  0  0  0  0  0  0  0  0  0  0  0
   -0.9558    2.0373    0.0508 N   0  0  0  0  0  0  0  0  0  0  0  0
   -0.5363    0.7870    0.1235 C   0  0  0  0  0  0  0  0  0  0  0  0
    0.8406    0.4254    0.2562 C   0  0  0  0  0  0  0  0  0  0  0  0
    1.8212    1.3081    0.3185 N   0  0  0  0  0  0  0  0  0  0  0  0
    2.9424    0.5316    0.4424 C   0  0  0  0  0  0  0  0  0  0  0  0
    4.2866    1.0827    0.5504 N   0  0  0  0  0  4  0  0  0  0  0  0
    4.3957    2.3178    0.5240 O   0  0  0  0  0  1  0  0  0  0  0  0
    5.2325    0.2859    0.6611 O   0  0  0  0  0  0  0  0  0  0  0  0
    2.7207   -0.7922    0.4627 N   0  0  0  0  0  0  0  0  0  0  0  0
    1.3783   -0.8338    0.3335 N   0  0  0  0  0  0  0  0  0  0  0  0
    0.7293   -2.1256    0.3413 C   0  0  0  0  0  0  0  0  0  0  0  0
   -0.5217   -2.2204   -0.5198 C   0  0  0  0  0  0  0  0  0  0  0  0
   -1.6989   -1.4879    0.1073 C   0  0  0  0  0  0  0  0  0  0  0  0
   -1.6232   -0.0457    0.0443 N   0  0  0  0  0  0  0  0  0  0  0  0
   -2.7736    0.6506   -0.0669 N   0  0  0  0  0  0  0  0  0  0  0  0
    0.5184   -2.3710    1.3884 H   0  0  0  0  0  0  0  0  0  0  0  0
    1.4620   -2.8531   -0.0293 H   0  0  0  0  0  0  0  0  0  0  0  0
   -0.7911   -3.2797   -0.6114 H   0  0  0  0  0  0  0  0  0  0  0  0
   -0.3263   -1.8480   -1.5330 H   0  0  0  0  0  0  0  0  0  0  0  0
   -1.8253   -1.7555    1.1626 H   0  0  0  0  0  0  0  0  0  0  0  0
   -2.6134   -1.7830   -0.4219 H   0  0  0  0  0  0  0  0  0  0  0  0
  1  2  1  0
  2  3  2  0
  2  4  1  0
  4  5  1  0
  5  6  2  0
  6  7  1  0
  7  8  2  0
  8  9  1  0
  9 10  1  0
 10 11  1  0
 10 12  2  0
  9 13  2  0
 13 14  1  0
 14 15  1  0
 15 16  1  0
 16 17  1  0
 17 18  1  0
 18 19  1  0
 14  7  1  0
 18  6  1  0
 19  4  2  0
 15 20  1  0
 15 21  1  0
 16 22  1  0
 16 23  1  0
 17 24  1  0
 17 25  1  0
M  CHG  4   1  -1   2   1  10   1  11  -1
M  END
$$$$
