
     RDKit          3D

 41 40  0  0  0  0  0  0  0  0999 V2000
    2.4414    1.0807   -1.5918 O   0  0  0  0  0  0  0  0  0  0  0  0
    2.3154    0.7728   -0.4177 C   0  0  0  0  0  0  0  0  0  0  0  0
    1.1855    0.2684    0.1558 N   0  0  0  0  0  0  0  0  0  0  0  0
    0.0733   -0.0486   -0.6896 C   0  0  0  0  0  0  0  0  0  0  0  0
   -1.0757   -0.2507    0.1432 N   0  0  0  0  0  0  0  0  0  0  0  0
   -2.2181   -0.7285   -0.4395 C   0  0  0  0  0  0  0  0  0  0  0  0
   -2.3168   -1.0952   -1.5997 O   0  0  0  0  0  0  0  0  0  0  0  0
   -3.2582   -0.7454    0.4584 N   0  0  0  0  0  0  0  0  0  0  0  0
   -4.5690   -1.2907    0.0614 C   0  0  0  0  0  0  0  0  0  0  0  0
   -5.8094   -0.6091    0.6401 C   0  0  0  0  0  0  0  0  0  0  0  0
   -5.9875    0.7311    0.0376 N   0  0  0  0  0  4  0  0  0  0  0  0
   -5.1179    1.5871    0.2752 O   0  0  0  0  0  1  0  0  0  0  0  0
   -6.9438    0.9289   -0.7277 O   0  0  0  0  0  0  0  0  0  0  0  0
   -7.0308   -1.4124    0.3706 N   0  0  0  0  0  4  0  0  0  0  0  0
   -8.0197   -1.2835    1.1097 O   0  0  0  0  0  1  0  0  0  0  0  0
   -6.9937   -2.2041   -0.5861 O   0  0  0  0  0  0  0  0  0  0  0  0
   -5.7288   -0.4714    2.1126 N   0  0  0  0  0  4  0  0  0  0  0  0
   -5.0939   -1.3474    2.7264 O   0  0  0  0  0  1  0  0  0  0  0  0
   -6.2817    0.4867    2.6734 O   0  0  0  0  0  0  0  0  0  0  0  0
    3.3338    0.9103    0.4899 N   0  0  0  0  0  0  0  0  0  0  0  0
    4.6071    1.5272    0.0870 C   0  0  0  0  0  0  0  0  0  0  0  0
    5.7256    0.5884   -0.3798 C   0  0  0  0  0  0  0  0  0  0  0  0
    5.3261   -0.1368   -1.6052 N   0  0  0  0  0  4  0  0  0  0  0  0
    5.5620    0.3956   -2.7017 O   0  0  0  0  0  1  0  0  0  0  0  0
    4.6936   -1.1989   -1.4815 O   0  0  0  0  0  0  0  0  0  0  0  0
    6.9742    1.3442   -0.6737 N   0  0  0  0  0  4  0  0  0  0  0  0
    6.9711    2.5669   -0.4530 O   0  0  0  0  0  1  0  0  0  0  0  0
    7.9711    0.7324   -1.0872 O   0  0  0  0  0  0  0  0  0  0  0  0
    6.1290   -0.3684    0.6829 N   0  0  0  0  0  4  0  0  0  0  0  0
    6.7423   -1.4044    0.3829 O   0  0  0  0  0  1  0  0  0  0  0  0
    5.8625   -0.0556    1.8584 O   0  0  0  0  0  0  0  0  0  0  0  0
    1.3526   -0.4090    0.8839 H   0  0  0  0  0  0  0  0  0  0  0  0
   -0.1256    0.7701   -1.3917 H   0  0  0  0  0  0  0  0  0  0  0  0
    0.2992   -0.9597   -1.2549 H   0  0  0  0  0  0  0  0  0  0  0  0
   -1.2430    0.5049    0.7906 H   0  0  0  0  0  0  0  0  0  0  0  0
   -2.9394   -0.9380    1.4049 H   0  0  0  0  0  0  0  0  0  0  0  0
   -4.5287   -2.3498    0.3513 H   0  0  0  0  0  0  0  0  0  0  0  0
   -4.6244   -1.2833   -1.0355 H   0  0  0  0  0  0  0  0  0  0  0  0
    3.0364    1.0175    1.4543 H   0  0  0  0  0  0  0  0  0  0  0  0
    4.3826    2.2668   -0.6937 H   0  0  0  0  0  0  0  0  0  0  0  0
    4.9211    2.1107    0.9632 H   0  0  0  0  0  0  0  0  0  0  0  0
  1  2  2  0
  2  3  1  0
  3  4  1  0
  4  5  1  0
  5  6  1  0
  6  7  2  0
  6  8  1  0
  8  9  1  0
  9 10  1  0
 10 11  1  0
 11 12  1  0
 11 13  2  0
 10 14  1  0
 14 15  1  0
 14 16  2  0
 10 17  1  0
 17 18  1  0
 17 19  2  0
  2 20  1  0
 20 21  1  0
 21 22  1  0
 22 23  1  0
 23 24  1  0
 23 25  2  0
 22 26  1  0
 26 27  1  0
 26 28  2  0
 22 29  1  0
 29 30  1  0
 29 31  2  0
  3 32  1  0
  4 33  1  0
  4 34  1  0
  5 35  1  0
  8 36  1  0
  9 37  1  0
  9 38  1  0
 20 39  1  0
 21 40  1  0
 21 41  1  0
M  CHG  8  11   1  12  -1  14   1  15  -1  17   1  18  -1  23   1  24  -1
M  CHG  4  26   1  27  -1  29   1  30  -1
M  END
$$$$
