
     RDKit          3D

 15 16  0  0  0  0  0  0  0  0999 V2000
    3.4540   -1.8035   -0.1575 O   0  0  0  0  0  1  0  0  0  0  0  0
    2.9463   -0.6837   -0.2367 N   0  0  0  0  0  4  0  0  0  0  0  0
    3.5236    0.3844   -0.4269 O   0  0  0  0  0  0  0  0  0  0  0  0
    1.6112   -0.7045   -0.0899 N   0  0  0  0  0  0  0  0  0  0  0  0
    0.7842    0.3647   -0.1284 C   0  0  0  0  0  0  0  0  0  0  0  0
    0.9988    1.6524   -0.3057 N   0  0  0  0  0  0  0  0  0  0  0  0
   -0.2163    2.3096   -0.2530 N   0  0  0  0  0  0  0  0  0  0  0  0
   -1.1537    1.4106   -0.0441 C   0  0  0  0  0  0  0  0  0  0  0  0
   -2.4982    1.4913    0.0916 N   0  0  0  0  0  0  0  0  0  0  0  0
   -3.1641    0.4405    0.2893 N   0  0  0  0  0  0  0  0  0  0  0  0
   -2.5130   -0.7786    0.3648 C   0  0  0  0  0  0  0  0  0  0  0  0
   -1.2336   -0.9930    0.2522 N   0  0  0  0  0  0  0  0  0  0  0  0
   -0.5709    0.1756    0.0407 N   0  0  0  0  0  0  0  0  0  0  0  0
    1.1974   -1.6148    0.0638 H   0  0  0  0  0  0  0  0  0  0  0  0
   -3.1656   -1.6511    0.5398 H   0  0  0  0  0  0  0  0  0  0  0  0
  1  2  1  0
  2  3  2  0
  2  4  1  0
  4  5  1  0
  5  6  2  0
  6  7  1  0
  7  8  2  0
  8  9  1  0
  9 10  2  0
 10 11  1  0
 11 12  2  0
 12 13  1  0
 13  5  1  0
 13  8  1  0
  4 14  1  0
 11 15  1  0
M  CHG  2   1  -1   2   1
M  END
$$$$
