
     RDKit          3D

 22 25  0  0  0  0  0  0  0  0999 V2000
   -4.4071    0.3503   -0.2632 C   0  0  0  0  0  0  0  0  0  0  0  0
   -4.6770   -0.9497    0.1256 N   0  0  0  0  0  0  0  0  0  0  0  0
   -3.7873   -1.6182    0.7139 N   0  0  0  0  0  0  0  0  0  0  0  0
   -2.5776   -1.0570    0.9507 C   0  0  0  0  0  0  0  0  0  0  0  0
   -1.4898   -1.5089    1.5382 N   0  0  0  0  0  0  0  0  0  0  0  0
   -0.5445   -0.5067    1.5010 N   0  0  0  0  0  0  0  0  0  0  0  0
   -1.0707    0.5425    0.8870 C   0  0  0  0  0  0  0  0  0  0  0  0
   -0.5354    1.7618    0.6065 N   0  0  0  0  0  0  0  0  0  0  0  0
    0.5783    1.8628    0.0324 N   0  0  0  0  0  0  0  0  0  0  0  0
    1.0869    0.8317   -0.6956 C   0  0  0  0  0  0  0  0  0  0  0  0
    0.5398    0.1095   -1.6619 N   0  0  0  0  0  0  0  0  0  0  0  0
    1.4622   -0.8235   -2.0839 N   0  0  0  0  0  0  0  0  0  0  0  0
    2.5573   -0.6557   -1.3731 C   0  0  0  0  0  0  0  0  0  0  0  0
    3.7529   -1.2921   -1.3744 N   0  0  0  0  0  0  0  0  0  0  0  0
    4.6549   -0.9200   -0.5792 N   0  0  0  0  0  0  0  0  0  0  0  0
    4.4129    0.1382    0.2786 C   0  0  0  0  0  0  0  0  0  0  0  0
    3.3195    0.8337    0.3734 N   0  0  0  0  0  0  0  0  0  0  0  0
    2.3755    0.3837   -0.4976 N   0  0  0  0  0  0  0  0  0  0  0  0
   -2.3682    0.2338    0.5385 N   0  0  0  0  0  0  0  0  0  0  0  0
   -3.2977    1.0042   -0.0897 N   0  0  0  0  0  0  0  0  0  0  0  0
   -5.2363    0.8722   -0.7706 H   0  0  0  0  0  0  0  0  0  0  0  0
    5.2515    0.4072    0.9432 H   0  0  0  0  0  0  0  0  0  0  0  0
  1  2  1  0
  2  3  2  0
  3  4  1  0
  4  5  2  0
  5  6  1  0
  6  7  2  0
  7  8  1  0
  8  9  2  0
  9 10  1  0
 10 11  2  0
 11 12  1  0
 12 13  2  0
 13 14  1  0
 14 15  2  0
 15 16  1  0
 16 17  2  0
 17 18  1  0
  7 19  1  0
 19 20  1  0
 18 10  1  0
 18 13  1  0
 19  4  1  0
 20  1  2  0
  1 21  1  0
 16 22  1  0
M  END
$$$$
