
     RDKit          3D

 30 31  0  0  0  0  0  0  0  0999 V2000
   -4.0909    1.6663    1.3302 O   0  0  0  0  0  1  0  0  0  0  0  0
   -3.1724    1.2899    2.0693 N   0  0  0  0  0  4  0  0  0  0  0  0
   -2.9555    1.6855    3.2214 O   0  0  0  0  0  0  0  0  0  0  0  0
   -2.2882    0.2936    1.5537 C   0  0  0  0  0  0  0  0  0  0  0  0
   -1.1881   -0.2982    2.1960 C   0  0  0  0  0  0  0  0  0  0  0  0
   -0.5720   -1.1972    1.4174 N   0  0  0  0  0  0  0  0  0  0  0  0
   -1.2688   -1.1489    0.2584 N   0  0  0  0  0  0  0  0  0  0  0  0
   -0.8995   -2.0230   -0.8608 C   0  0  0  0  0  0  0  0  0  0  0  0
    0.4586   -1.7190   -1.3199 N   0  0  0  0  0  0  0  0  0  0  0  0
    0.5840   -0.4072   -1.9562 C   0  0  0  0  0  0  0  0  0  0  0  0
    0.9928    0.5729   -0.9454 N   0  0  0  0  0  0  0  0  0  0  0  0
    2.1460    0.5654   -0.2109 C   0  0  0  0  0  0  0  0  0  0  0  0
    2.1035    1.7037    0.5669 C   0  0  0  0  0  0  0  0  0  0  0  0
    3.0722    2.1348    1.5233 N   0  0  0  0  0  4  0  0  0  0  0  0
    4.0755    1.4277    1.6698 O   0  0  0  0  0  1  0  0  0  0  0  0
    2.8269    3.1853    2.1284 O   0  0  0  0  0  0  0  0  0  0  0  0
    0.9070    2.3460    0.2069 C   0  0  0  0  0  0  0  0  0  0  0  0
    0.2281    1.6672   -0.7271 N   0  0  0  0  0  0  0  0  0  0  0  0
    1.0023   -2.6980   -2.0957 N   0  0  0  0  0  4  0  0  0  0  0  0
    2.1902   -2.5474   -2.3839 O   0  0  0  0  0  1  0  0  0  0  0  0
    0.2637   -3.6195   -2.4494 O   0  0  0  0  0  0  0  0  0  0  0  0
   -2.3392   -0.3011    0.3093 C   0  0  0  0  0  0  0  0  0  0  0  0
   -0.8077   -0.1148    3.1924 H   0  0  0  0  0  0  0  0  0  0  0  0
   -1.6565   -1.9113   -1.6469 H   0  0  0  0  0  0  0  0  0  0  0  0
   -0.9779   -3.0340   -0.4390 H   0  0  0  0  0  0  0  0  0  0  0  0
   -0.3537   -0.0615   -2.4121 H   0  0  0  0  0  0  0  0  0  0  0  0
    1.3590   -0.3368   -2.7311 H   0  0  0  0  0  0  0  0  0  0  0  0
    2.8732   -0.2337   -0.2888 H   0  0  0  0  0  0  0  0  0  0  0  0
    0.5039    3.2797    0.5808 H   0  0  0  0  0  0  0  0  0  0  0  0
   -3.0168   -0.1662   -0.5224 H   0  0  0  0  0  0  0  0  0  0  0  0
  1  2  1  0
  2  3  2  0
  2  4  1  0
  4  5  1  0
  5  6  2  0
  6  7  1  0
  7  8  1  0
  8  9  1  0
  9 10  1  0
 10 11  1  0
 11 12  1  0
 12 13  2  0
 13 14  1  0
 14 15  1  0
 14 16  2  0
 13 17  1  0
 17 18  2  0
  9 19  1  0
 19 20  1  0
 19 21  2  0
  7 22  1  0
 18 11  1  0
 22  4  2  0
  5 23  1  0
  8 24  1  0
  8 25  1  0
 10 26  1  0
 10 27  1  0
 12 28  1  0
 17 29  1  0
 22 30  1  0
M  CHG  6   1  -1   2   1  14   1  15  -1  19   1  20  -1
M  END
$$$$
