
     RDKit          3D

 38 39  0  0  0  0  0  0  0  0999 V2000
   -5.4929   -2.8906    0.8090 N   0  0  0  0  0  2  0  0  0  0  0  0
   -4.4418   -2.5366    1.0701 N   0  0  0  0  0  4  0  0  0  0  0  0
   -3.2932   -2.1338    1.3506 N   0  0  0  0  0  0  0  0  0  0  0  0
   -2.7207   -1.3250    0.3638 C   0  0  0  0  0  0  0  0  0  0  0  0
   -2.0303   -1.7137   -0.8034 C   0  0  0  0  0  0  0  0  0  0  0  0
   -1.7716   -3.0372   -1.3282 N   0  0  0  0  0  4  0  0  0  0  0  0
   -2.5912   -3.9174   -1.0318 O   0  0  0  0  0  1  0  0  0  0  0  0
   -0.7691   -3.1926   -2.0409 O   0  0  0  0  0  0  0  0  0  0  0  0
   -1.5954   -0.6505   -1.5115 N   0  0  0  0  0  0  0  0  0  0  0  0
   -1.9084    0.4181   -0.7239 N   0  0  0  0  0  0  0  0  0  0  0  0
   -1.5545    1.7554   -1.2303 C   0  0  0  0  0  0  0  0  0  0  0  0
   -0.1027    1.8234   -1.3569 N   0  0  0  0  0  0  0  0  0  0  0  0
    0.6166    2.0959   -0.1151 C   0  0  0  0  0  0  0  0  0  0  0  0
    1.4844    0.9448    0.1607 N   0  0  0  0  0  0  0  0  0  0  0  0
    0.8802   -0.1881    0.6229 N   0  0  0  0  0  0  0  0  0  0  0  0
    1.8728   -1.1037    0.6333 C   0  0  0  0  0  0  0  0  0  0  0  0
    1.5452   -2.4612    1.0259 N   0  0  0  0  0  4  0  0  0  0  0  0
    0.3461   -2.7775    1.0660 O   0  0  0  0  0  1  0  0  0  0  0  0
    2.4938   -3.2006    1.3178 O   0  0  0  0  0  0  0  0  0  0  0  0
    3.1177   -0.5354    0.2887 C   0  0  0  0  0  0  0  0  0  0  0  0
    4.3633   -1.1661    0.1983 N   0  0  0  0  0  0  0  0  0  0  0  0
    4.9650   -1.2623    1.2870 N   0  0  0  0  0  4  0  0  0  0  0  0
    5.5022   -1.3296    2.2898 N   0  0  0  0  0  2  0  0  0  0  0  0
    2.8354    0.7817    0.0200 C   0  0  0  0  0  0  0  0  0  0  0  0
    3.7101    1.8393   -0.3286 N   0  0  0  0  0  4  0  0  0  0  0  0
    4.6682    1.5623   -1.0523 O   0  0  0  0  0  1  0  0  0  0  0  0
    3.4621    2.9407    0.1730 O   0  0  0  0  0  0  0  0  0  0  0  0
    0.3829    2.4971   -2.4331 N   0  0  0  0  0  4  0  0  0  0  0  0
    1.6099    2.5180   -2.5304 O   0  0  0  0  0  1  0  0  0  0  0  0
   -0.4319    3.0291   -3.1851 O   0  0  0  0  0  0  0  0  0  0  0  0
   -2.6041    0.0422    0.3920 C   0  0  0  0  0  0  0  0  0  0  0  0
   -3.0806    0.9621    1.3511 N   0  0  0  0  0  4  0  0  0  0  0  0
   -4.2067    0.7552    1.8078 O   0  0  0  0  0  1  0  0  0  0  0  0
   -2.3416    1.9146    1.6220 O   0  0  0  0  0  0  0  0  0  0  0  0
   -1.9752    2.5453   -0.6055 H   0  0  0  0  0  0  0  0  0  0  0  0
   -2.0892    1.7946   -2.1892 H   0  0  0  0  0  0  0  0  0  0  0  0
   -0.0420    2.1760    0.7544 H   0  0  0  0  0  0  0  0  0  0  0  0
    1.1875    3.0260   -0.1260 H   0  0  0  0  0  0  0  0  0  0  0  0
  1  2  2  0
  2  3  2  0
  3  4  1  0
  4  5  1  0
  5  6  1  0
  6  7  1  0
  6  8  2  0
  5  9  2  0
  9 10  1  0
 10 11  1  0
 11 12  1  0
 12 13  1  0
 13 14  1  0
 14 15  1  0
 15 16  2  0
 16 17  1  0
 17 18  1  0
 17 19  2  0
 16 20  1  0
 20 21  1  0
 21 22  2  0
 22 23  2  0
 20 24  2  0
 24 25  1  0
 25 26  1  0
 25 27  2  0
 12 28  1  0
 28 29  1  0
 28 30  2  0
 10 31  1  0
 31 32  1  0
 32 33  1  0
 32 34  2  0
 24 14  1  0
 31  4  2  0
 11 35  1  0
 11 36  1  0
 13 37  1  0
 13 38  1  0
M  CHG  8   1  -1   2   1   6   1   7  -1  17   1  18  -1  22   1  23  -1
M  CHG  6  25   1  26  -1  28   1  29  -1  32   1  33  -1
M  END
$$$$
