13
002CID10509
 O         1.236250540873      1.422819656464     -1.326773149248
 O         1.422505480656     -1.443595902379     -1.097947144646
 O         0.216483005687      1.997357133284      1.218145496900
 O        -2.295794857243     -0.136527009318      0.153494188265
 O        -0.841901567993      1.042555797583     -1.929932330436
 O         1.834890569667     -1.051000197337      1.024074827557
 O        -0.361866543300      0.157711602628      2.270919602310
 O        -1.210646413162     -1.989335113602     -0.311952284817
 N         0.135243602159      0.917590441749     -1.220759973150
 N         1.219931769109     -0.928389459764     -0.015233881427
 N        -0.052011226403      0.816215635045      1.296712112349
 N        -1.303098454675     -0.805376566930     -0.060823643347
 C         0.000014094627     -0.000026017421     -0.000023820313
