15
016CID980
 O         3.439312193220     -0.038711549129      0.000083592941
 O        -2.723795727947      1.083987661905     -0.000211331694
 O        -2.712172846837     -1.096836246220      0.000015282233
 N        -2.143485403679     -0.003576730232     -0.000075201630
 C        -0.683127800547      0.003860379406     -0.000035289187
 C        -0.010380548194      1.224151631022     -0.000177744287
 C         0.006561547774     -1.210396574156      0.000143472449
 C         2.083039552221      0.017835407535      0.000038564771
 C         1.378106055557      1.230023038984     -0.000141811581
 C         1.392394371614     -1.203056968535      0.000181796960
 H        -0.579354127903      2.145056112548     -0.000313137603
 H        -0.552660874291     -2.137290328394      0.000248286367
 H         1.917779404169      2.174064592430     -0.000253880461
 H         1.960347014316     -2.126704525282      0.000321268423
 H         3.800937190527      0.861694098116     -0.000023867703
