9
033CID61172
 O         1.096228459877      0.343846060272     -1.103895358183
 O        -1.552169631080      1.373653138700      0.146670520447
 O         2.258177886255     -0.327849667557      0.629598236595
 O        -1.774193292867     -0.705508041254     -0.518856684547
 N         1.223955821830     -0.037616872017      0.046113921279
 N        -1.228213390845      0.194043840927      0.106287198374
 C        -0.016774512416     -0.188732923681      0.899168936043
 H         0.084552197789      0.484737757007      1.746888870795
 H        -0.091563538543     -1.234973292399      1.186024359198
