16
038CID10996
 O        -1.312675791498      0.496530317706     -0.176322117686
 O        -2.624497812124     -0.905576339638      0.784512787275
 N        -1.761445870928     -0.132809737660      1.016502133303
 C         1.073727919391      0.897084484074     -0.479027789107
 C         1.556711025306     -0.411003475217      0.154541219806
 C        -0.235831497162      1.411009847679      0.106939970349
 C         2.882057718499     -0.895943542845     -0.436959047489
 H         1.831245153027      1.681655944242     -0.341516883467
 H         0.952472623561      0.765230231184     -1.562147901380
 H         0.788585202523     -1.181784033777      0.018041635930
 H         1.663198145382     -0.270376880174      1.239217443707
 H        -0.167751240949      1.529971446683      1.194675908790
 H        -0.523952852388      2.369563260979     -0.336171366230
 H         2.791146171843     -1.071094704123     -1.515647899593
 H         3.677735681396     -0.156056483194     -0.287233496559
 H         3.205543474119     -1.833666755917      0.027430482352
