19
041CID23506
 O         2.276097992242     -1.108439589382      0.186965949650
 O         2.299517956096      1.068590817974     -0.025805012981
 N         0.333902625982      0.007306322628      0.144176491908
 N         1.723139995894     -0.013577792699      0.083370213756
 C        -2.515356760850     -0.000015977725     -0.244136613662
 C        -1.783167025411     -1.208907789911      0.345415789432
 C        -1.756367681190      1.284266387112      0.101754904559
 C        -0.330592675190     -1.271640535616     -0.129501048619
 C        -0.303769629099      1.222938459316     -0.373282403220
 H        -2.580480535328     -0.106072053880     -1.336446427237
 H        -3.542570373084      0.047970503808      0.133870613920
 H        -1.795879939130     -1.148350896969      1.440880837817
 H        -2.278410407865     -2.145214641848      0.064796621284
 H        -2.232139781074      2.158865090498     -0.355849796637
 H        -1.768095461394      1.437213170425      1.188190462629
 H         0.221563554302     -2.051911263184      0.389845327239
 H        -0.287959549270     -1.487837298366     -1.209347523713
 H        -0.258771073261      1.225067078445     -1.474462147960
 H         0.265938767632      2.077050009373     -0.013636238164
