8
051CID6324
 C        -0.764956218991      0.000013603168     -0.000002501108
 C         0.764956218991     -0.000013603168      0.000002501108
 H        -1.163382393796      0.656509767089      0.781994875261
 H        -1.163383875748      0.349004350624     -0.959539976790
 H        -1.163406416956     -1.005455878633      0.177533698052
 H         1.163383875748     -0.349004350624      0.959539976790
 H         1.163406416956      1.005455878633     -0.177533698052
 H         1.163382393796     -0.656509767089     -0.781994875261
