9
066CID6351
 C         0.320243382008      0.810262374892      0.000013615098
 C        -0.861838431975     -0.127786791737     -0.000012569464
 C         0.541576824525     -0.682471775276     -0.000002868146
 H         0.537792245253      1.360709274445     -0.911304894478
 H         0.537771944245      1.360671397866      0.911359333165
 H        -1.447319883792     -0.214618808215      0.911300810305
 H        -1.447276299911     -0.214583635649     -0.911357247462
 H         0.909482285032     -1.146093676752     -0.911330943970
 H         0.909467934616     -1.146088359575      0.911334764954
