20
011CID20124
 O        -3.328178203861      1.094508385515      0.078214699055
 O         3.328226844786      1.094459445239     -0.077973927971
 O        -3.328261151874     -1.094540524867      0.078239363175
 O         3.328278104130     -1.094588324164     -0.078183274638
 N        -1.376270021090     -0.000068843401      0.170871440986
 N         1.376299680981     -0.000078815602     -0.170781852449
 N        -2.771717238806     -0.000037625580      0.087576105092
 N         2.771747825899     -0.000077069865     -0.087481981578
 C         0.718752175070     -1.236220975544      0.253447041148
 C        -0.718744879794     -1.236186264531     -0.253463725963
 C         0.718791067978      1.236029381733      0.253524802748
 C        -0.718740201056      1.236063072686     -0.253333602826
 H         1.259050147427     -2.079543089861     -0.171647721327
 H         0.735700840110     -1.322239978587      1.349647443093
 H         0.735796567502      1.322037732274      1.349725908031
 H         1.259057552487      2.079379595950     -0.171563582020
 H        -0.735694998826     -1.322110001727     -1.349671617470
 H        -1.259058218246     -2.079535355662      0.171558126648
 H        -1.258991621633      2.079387942572      0.171824024554
 H        -0.735744271180      1.322161313423     -1.349527668287
