14
013CID7416
 O         2.329786986453      1.089698211878     -0.000040461656
 O         2.329795709478     -1.089660817314     -0.000056939648
 N         1.758120405169      0.000016421155     -0.000076365846
 C         0.286957653855      0.000010546790     -0.000031717265
 C        -0.384187176742      1.220417225911      0.000010358007
 C        -0.384177430359     -1.220401499525     -0.000033034632
 C        -1.776789850296      1.212017150396      0.000051956299
 C        -1.776780166974     -1.212012513365      0.000007908275
 C        -2.471734538978     -0.000000447821      0.000050457078
 H         0.184655032046      2.141360099352      0.000009111420
 H         0.184672086434     -2.141339857769     -0.000065776732
 H        -2.319028607992      2.152323927114      0.000085435089
 H        -2.319011438952     -2.152323608542      0.000006439085
 H        -3.557678663140     -0.000004804361      0.000082630526
