7
064CID123173
 C        -0.885456712179     -0.000250560085      0.000000000000
 C         0.477323140226      0.647544628282      0.000000000000
 C         0.477650577141     -0.647357800132      0.000000000000
 H        -1.489914028535     -0.000399938579      0.912759508478
 H        -1.489914028535     -0.000399938579     -0.912759508478
 H         1.018953565611      1.581588739942      0.000000000000
 H         1.019757486269     -1.581125130132      0.000000000000
