12
073CID9250
 C         0.130000937352     -1.075387058849      0.126160975949
 C        -1.075398888379     -0.129966731112     -0.126106546810
 C         1.075403017530      0.130005722710     -0.126212138062
 C        -0.129971556735      1.075414935948      0.126224565822
 H         0.170283678579     -1.408134441512      1.168999812235
 H         0.235869745408     -1.951321334395     -0.521760988057
 H        -1.408175839880     -0.170170453891     -1.168939030471
 H        -1.951314994435     -0.235884066265      0.521832061746
 H         1.951385512030      0.235893064901      0.521641366156
 H         1.408071249104      0.170258338011     -1.169077279002
 H        -0.235907380839      1.951378953007     -0.521646010915
 H        -0.170145479736      1.408113071449      1.169083211408
