18
010CID8819
 O         3.098226184423     -0.834999471204      0.555295758000
 O        -3.103902166272     -0.818958130865     -0.551113032906
 N         1.350696614314      0.155743663961     -0.282248390867
 N        -1.350648981260      0.164790901869      0.282710311903
 N         2.569617858705      0.236067186892      0.288724263089
 N        -2.569086644246      0.250023225297     -0.288586170557
 C        -0.624645828621     -1.089909604101      0.454773678785
 C         0.617330194490     -1.095339144592     -0.449361302438
 C        -0.617052902797      1.406713802668      0.451765326042
 C         0.624411637850      1.401278366438     -0.456224046237
 H        -0.325992250247     -1.183098235356      1.505066851600
 H        -1.313803151313     -1.895969938645      0.198874925946
 H        -1.294992090564      2.224891675469      0.197939359450
 H        -0.306769475851      1.504846974059      1.499594546623
 H         1.301740954598     -1.904418212904     -0.190270089478
 H         0.318125169203     -1.190912329402     -1.499283246317
 H         0.314694298927      1.497094949499     -1.504435217676
 H         1.307150578662      2.216454320919     -0.205623524966
