16
020CID137049
 O         3.270154092939      1.423545806813      0.161866537545
 O         3.641620515428     -0.714509445431     -0.059922097678
 N         2.892576721808      0.257189294327      0.044486936532
 N        -2.644529775719     -0.795801649237     -0.029489863615
 N        -3.470570082595      0.124594484364      0.070249269566
 N        -4.332579161507      0.864099623556      0.151618788974
 C         1.449719600553      0.007926181547      0.027794336881
 C         0.574997655999      1.086755810222      0.144038602449
 C         0.987616101817     -1.301405154442     -0.103874713949
 C        -1.274418526089     -0.460122281576     -0.003461426701
 C        -0.792908733950      0.852372614312      0.128409089915
 C        -0.379456953571     -1.533881139377     -0.119315988651
 H         0.974824492547      2.087710877221      0.244400250003
 H         1.700394978720     -2.111246519818     -0.191474551252
 H        -1.484548014651      1.684196083505      0.218140965465
 H        -0.774992911729     -2.538224585984     -0.220066135483
