28
028CID357114
 N         1.982406280008      0.999345229968      0.001729216548
 N         2.890870298195      0.165400673210     -0.000701128557
 N         3.810780330374     -0.514525794159     -0.002097066032
 C         0.594730937786      0.441053688072      0.000740786067
 C        -1.118014482121     -0.909908985960      1.256682394926
 C        -1.812029908228      1.159802449345      0.003584525474
 C        -1.118950680131     -0.903083160560     -1.261228650519
 C         0.341019875655     -0.413655877789      1.256786172046
 C        -0.351638720388      1.649439183919      0.004368758315
 C         0.340082406267     -0.406827050900     -1.259735824920
 C        -2.066779297048      0.303833499529      1.258783162705
 C        -1.369480398944     -1.757854369536     -0.004487834668
 C        -2.067716728752      0.310647857300     -1.256044926278
 H        -1.291075196014     -1.518149285542      2.152972568654
 H        -2.481492659469      2.028565703202      0.006189194333
 H        -1.292679194206     -1.506455430052     -2.160674263385
 H         0.545902697621      0.188376187297      2.150367714849
 H         1.032459660539     -1.266755339797      1.270714836769
 H        -0.148882797438      2.269712538576     -0.877031343439
 H        -0.148224609658      2.264924047146      0.888968242816
 H         1.031516091290     -1.259830579156     -1.278834404345
 H         0.544281825054      0.200055334013     -2.150187799899
 H        -3.110544807994     -0.035796505443      1.276671245630
 H        -1.907466567345      0.904728739050      2.163779465761
 H        -0.708621409638     -2.634827042390     -0.007112004957
 H        -2.401378060457     -2.132171002562     -0.005119117871
 H        -3.111495253891     -0.028884814696     -1.274994329167
 H        -1.909079631066      0.916440107912     -2.157889590854
