10
070CID80245
 C         0.931212274041      0.769911555254     -0.000003342788
 C         0.931222179416     -0.769841334241      0.000010920096
 C        -0.320117542000      0.000027568697     -0.000062551270
 C        -1.641604205563      0.000019607313     -0.000010032855
 H         1.236471559119      1.279190291080     -0.912851622150
 H         1.236353215952      1.279237584078      0.912857710346
 H         1.236365453280     -1.279143294987      0.912884516118
 H         1.236489386048     -1.279134335843     -0.912826441874
 H        -2.209840587709     -0.927318011347      0.000007687136
 H        -2.209851732588      0.927350369998     -0.000006842759
