8
084CID9033
 N        -0.000757416980      0.857916336268      0.021981994333
 C        -0.741878673641     -0.414204431507     -0.005929334875
 C         0.742786643938     -0.412789643188     -0.005942195740
 H        -1.252953753001     -0.709627560129     -0.921040220970
 H        -1.286377769331     -0.644686640609      0.906773766271
 H         1.287740167511     -0.642233300144      0.906751265784
 H         1.254407237456     -0.707237410821     -0.921062569351
 H        -0.001166435950      1.279462650132     -0.906632705451
