30
Coordinates from ORCA-job 012CID140617
  O   -2.30130011503465      2.27268786102786      1.48860238798071
  O   -3.80814681042075     -1.14887195410808      0.93701016446302
  O   -0.98201550482134     -0.12913863110802     -1.78273326662877
  O   0.87471292996233      1.99277235292088      0.19800499679639
  O   2.04995391113284     -0.99571963447905     -1.83795022932826
  O   3.65423534404717      0.40498211089739      2.11068031708359
  O   -4.06429628876784      1.72810235674135      0.32897103614523
  O   -3.65865939813509     -0.93109851273626     -1.23061271930152
  O   -1.78933298960096      1.88668520722335     -1.54542973863547
  O   2.16229520768940      1.73671835335946     -1.54646955242669
  O   3.73006147091496     -1.52935323237590     -0.54409255234960
  O   4.39037775576396      1.23301668330338      0.23006500593970
  O   0.89730692461946     -2.86081521862182      0.20693954119283
  O   -1.27012606173794     -2.57182720675591      0.17941300713252
  N   0.04193739384077     -0.84274937985400      0.68346075941810
  N   -2.93438086489883      1.56580076550407      0.72966711285090
  N   -3.32287100453851     -0.71711521411079     -0.09095967966687
  N   -1.59869708707433      0.73844409121868     -1.19671687635661
  N   1.71349979650947      1.40665620961557     -0.47715856846961
  N   2.74835347378709     -0.88493918986107     -0.85718636553011
  N   3.58717645939002      0.64992574375412      0.92110038573294
  N   -0.12016819742424     -2.20315375283696      0.33522027218731
  C   -1.14537391301220     -0.17468333158001      1.16807691641304
  C   1.34396023369800     -0.47893776727496      1.20412603089525
  C   -2.17767854941281      0.30821874457432      0.15204992687284
  C   2.29290154688195      0.14662251720158      0.19427455334781
  H   -0.81451280108286      0.71918559010676      1.68221939234164
  H   -1.69291014487208     -0.80018680501668      1.87230191969961
  H   1.84035102698842     -1.35558511568621      1.60929793226799
  H   1.21884625560858      0.23245637895695      2.01102789993209
