15
Coordinates from ORCA-job 015CID11137
  O   -2.64296313290670      1.54295748534196     -0.00065324636816
  O   2.82444705326083     -0.62034825005032      0.00054601599064
  O   2.25659421758638      1.47964831906314      0.00056641606007
  N   1.99144695677754      0.28137864055093      0.00038630845387
  C   0.56407034405072     -0.10689469292049      0.00004175291120
  C   -0.38856618674414      0.89409705000876     -0.00013264980981
  C   -1.73060180618427      0.53376596585150     -0.00048188338626
  C   0.23510300956526     -1.45350905025337     -0.00010967070216
  C   -2.08820552636692     -0.81324322236408     -0.00064569755758
  C   -1.10709568628200     -1.79330727808489     -0.00045755554531
  H   -0.09717591584551      1.93172532379987     -0.00000584377902
  H   1.01337112528329     -2.19867637708482      0.00003831535833
  H   -3.13456117654652     -1.09498627677182     -0.00092241036042
  H   -1.39605135485747     -2.83486261794340     -0.00058809949590
  H   -3.53271192079049      1.17135498085703     -0.00088173176949
