17
Coordinates from ORCA-job 022CID7473
  O   2.73697081716861      1.08806855431748     -0.01811884276630
  O   2.73688420430105     -1.08828521787715     -0.01798105118883
  N   2.16583383098377     -0.00008512414711     -0.01346625670957
  C   -2.08287381625548      0.00007999417938      0.01934204801018
  C   0.69396447709321     -0.00002719339258     -0.00272960862361
  C   -1.36735085602725      1.19787030117672      0.01678408617931
  C   -1.36743443600174     -1.19777562175498      0.01694504255405
  C   0.01526763813634      1.20801156978953      0.00422599263134
  C   0.01517145583296     -1.20802289242189      0.00438754717072
  C   -3.57834894188873      0.00009312801613     -0.00347318573020
  H   -1.90294849979285      2.13808651868950      0.02590258216678
  H   -1.90310890547601     -2.13794896695333      0.02619134921126
  H   0.57322818230034      2.13104004532793      0.00360880249328
  H   0.57306608272994     -2.13109118055493      0.00389368547014
  H   -3.98694502559221     -0.88110491607240      0.48613504240994
  H   -3.98691016659684      0.88264408600737      0.48369854168366
  H   -3.94606604091509     -0.00135306432967     -1.03104574496215
