16
Coordinates from ORCA-job 039CID11672
  O   1.53886310232455      1.04923314259196      0.00506533954654
  O   1.46348214668075     -1.11966691285178     -0.00634166524118
  N   0.93569678486746     -0.01461888786219     -0.00028250531933
  C   -0.62362325852180      0.01481066510965      0.00034816731367
  C   -1.08919430526506      1.45354685029077      0.00959677855670
  C   -1.06032245885219     -0.71343527535409     -1.26181115108705
  C   -1.05994292507000     -0.72941796438993      1.25327590009644
  H   -0.74305204229298      1.99373018758682     -0.86679584667976
  H   -2.17802233112621      1.46602457098605      0.01052378492302
  H   -0.74165367419943      1.98264902879274      0.89216795522971
  H   -0.69508901228570     -1.73564477212287     -1.26792006369790
  H   -0.70016647283554     -0.20636997449376     -2.15496176017825
  H   -2.14766063869034     -0.73377820893541     -1.30127602368866
  H   -0.69998142200153     -0.23355755799615      2.15277972891196
  H   -2.14727576724256     -0.75074915624374      1.29252211489693
  H   -0.69425774548942     -1.75145575510808      1.24660923641718
