17
Coordinates from ORCA-job 043CID69321
  O   2.59126309205219      1.08353044050923     -0.55108631208901
  O   2.57869752957764     -1.09640179640410     -0.54917337079322
  N   2.24176078571578     -0.00406794962068     -0.11408237050288
  C   -0.13755137654392      0.00201783827825      0.54430653179536
  C   1.26481641492753      0.00233408585420      1.05895394751233
  C   -0.78980989417130      1.20383537145382      0.28341100878144
  C   -0.79174634962039     -1.19996421711248      0.28904190749736
  C   -2.08065592160716      1.20323403076068     -0.22122890657798
  C   -2.08255475586721     -1.19958153347613     -0.21563212037280
  C   -2.72912514281955      0.00176450253253     -0.47066171816051
  H   1.49385485425391      0.89737121626783      1.62601885482722
  H   1.49159465702877     -0.88855266404727      1.63351576593958
  H   -0.28111589290789      2.14028252500563      0.47083532478132
  H   -0.28451266878847     -2.13631095989787      0.48075713924004
  H   -2.58123991936831      2.14150979470892     -0.41849639820203
  H   -2.58467716308894     -2.13795160757930     -0.40849379373021
  H   -3.73749825877266      0.00165092276675     -0.86248549994599
