7
Coordinates from ORCA-job 063CID10037
  C   3.98921075965164      0.67928277808692      0.00851056425346
  C   1.75921817232005     -0.64537566539856     -0.14085594094574
  C   2.87427784557470      0.01683956382392     -0.06604457375501
  H   4.00572390820232      1.73909181193949      0.23151243209470
  H   4.94690940412938      0.19821967358429     -0.14861159461758
  H   1.21934460216542     -0.74412441799181     -1.07470035666007
  H   1.32448051795649     -1.12468778404424      0.72773061963023
