9
Coordinates from ORCA-job 065CID8252
  C   1.28084681471616     -0.19923568905613     -0.00000000147022
  C   -0.06994309153662      0.42695118036777      0.00000000369913
  C   -1.22132233182646     -0.23122720481602      0.00000000606407
  H   1.85788731769704      0.10913525688056     -0.87418858729089
  H   1.22109911813256     -1.28599565569145     -0.00000000572191
  H   1.85788730948791      0.10913524022845      0.87418859260047
  H   -0.09068714608566      1.51375169398336     -0.00000001065430
  H   -2.17206566243367      0.28468111483026     -0.00000000194835
  H   -1.25780234815125     -1.31439592672681      0.00000000472200
