10
Coordinates from ORCA-job 071CID135973
  C   0.00001331896542      0.74062972598942     -0.33516335059158
  C   -0.00002277776932     -0.74066304624763     -0.33503409057570
  C   1.12984269215256      0.00000913821852      0.28125960392092
  C   -1.12983308522334      0.00006456774484      0.28129442949891
  H   0.00001703863188      1.39918923989290     -1.18651666333883
  H   -0.00005279057532     -1.39937306878715     -1.18627105323945
  H   2.07002825266188     -0.00006059026795     -0.25774719295311
  H   1.24084114525498      0.00010140704971      1.36451140438807
  H   -1.24079818605620      0.00016230654348      1.36454970875022
  H   -2.07003560804253      0.00004031986387     -0.25768279585944
