10
Coordinates from ORCA-job 072CID69972
  C   -0.75663004387689      0.78024866931317      0.00014270330417
  C   -0.75537426916696     -0.78144820590986     -0.00011517157828
  C   0.74776642052006      0.66792484529508      0.00013353363968
  C   0.74884273740379     -0.66670312438527     -0.00012553594894
  H   -1.19998676983510      1.23706314423174      0.88600460868689
  H   -1.19998831831288      1.23736515532773     -0.88556450543922
  H   -1.19801483789886     -1.23896678987546     -0.88597103055875
  H   -1.19799284426219     -1.23926866728336      0.88559759013847
  H   1.53165047850054      1.41604258963744      0.00026801789701
  H   1.53392744692850     -1.41355761635121     -0.00027022014103
