14
Coordinates from ORCA-job 075CID7843
  C   -0.57126506948561      0.50203370530019     -0.00119367446230
  C   0.57126507268695     -0.50209083936332     -0.00122162726026
  C   -1.94485835572215     -0.14699534997368     -0.00121147481327
  C   1.94485835678030      0.14693819865549     -0.00122693821837
  H   -0.47462440815248      1.15436868263712     -0.87355052980294
  H   -0.47462378959503      1.15432102949617      0.87119859490672
  H   0.47463366826041     -1.15441557940213      0.87114379867756
  H   0.47461452558702     -1.15438839791389     -0.87360533430760
  H   -2.08344821087591     -0.77756243478861     -0.88024252537443
  H   -2.08343771781571     -0.77763342651315      0.87777044625677
  H   -2.74090603625626      0.59706920532388     -0.00117614004614
  H   2.08343993366917      0.77753984211452     -0.88023450725560
  H   2.74090606216868     -0.59712634842753     -0.00122854813143
  H   2.08344596875062      0.77754171285494      0.87777846983128
