12
Coordinates from ORCA-job 078CID241
  C   -1.20741788841628     -0.68517443560797      0.00000922146278
  C   -1.19714008684269      0.70305060300437      0.00001939851932
  C   -0.01027088557155     -1.38818345660157     -0.00000184294788
  C   0.01030514526922      1.38821670089473      0.00001851638835
  C   1.19717381276100     -0.70301755840166     -0.00000274959962
  C   1.20745172978975      0.68520779894410      0.00000744001412
  H   -2.14850728566284     -1.21939086381592      0.00000991831115
  H   -2.13020562693443      1.25118059328608      0.00002798837160
  H   -0.01831143979318     -2.47034577522690     -0.00000980091867
  H   0.01834184628320      2.47037912514974      0.00002654683361
  H   2.13023959773770     -1.25114717851091     -0.00001133379955
  H   2.14854109138009      1.21942443688591      0.00000669736479
