8
Coordinates from ORCA-job 082CID7865
  O   0.63783318658389     -0.63900320548105     -0.00004600050667
  O   -1.29972212631559      0.54710152474285      0.00000978030766
  C   1.39369757884864      0.58803162900080     -0.00002747374401
  C   -0.69584694311987     -0.49504160636232     -0.00002107326942
  H   2.43527783362002      0.28950192732949     -0.00006323883461
  H   1.16519334478199      1.17604135629038      0.88518596635309
  H   1.16514762848185      1.17609690218330     -0.88519211836756
  H   -1.15758051288092     -1.49012851770345     -0.00004584193848
