4
Coordinates from ORCA-job 085CID9999
  N   1.84339562644513      0.00000000522583      0.00000000212490
  N   -1.84339562665181      0.00000000652454      0.00000000460339
  C   0.68224444947816     -0.00000000392707      0.00000000035359
  C   -0.68224444927148     -0.00000000782329     -0.00000000708188
