10
Coordinates from ORCA-job 086CID674
  N   0.00003635610395     -0.53017995540426     -0.02974237823996
  C   -1.20747114340146      0.27207122497256      0.01688583800153
  C   1.20748502917100      0.27215865443658      0.01690110328412
  H   0.00005481556261     -1.18157145024418      0.74421717040730
  H   -1.26567340253896      0.95519039209363      0.88010174545494
  H   -2.08147932615597     -0.37679679670232      0.03668618544084
  H   -1.27384034024891      0.88224937157506     -0.88424784345264
  H   2.08154033425785     -0.37664562693592      0.03670872476747
  H   1.26562850303623      0.95527974655336      0.88011945363561
  H   1.27381917421367      0.88234442965548     -0.88422998929919
