10
Coordinates from ORCA-job 087CID6341
  N   1.24847676948959     -0.27576573895497     -0.00001421280879
  C   0.02432443895434      0.52073632482761     -0.00002013292337
  C   -1.28165651436464     -0.26089534129774      0.00001994824309
  H   0.05813204879862      1.17838797055126      0.87055190817251
  H   0.05810847637860      1.17833828543489     -0.87063058107620
  H   -1.35466663530715     -0.90072034265750     -0.88074741195849
  H   -1.35464257933560     -0.90066998092119      0.88082588536970
  H   -2.14749420748292      0.40372804779325      0.00001290288320
  H   1.25924991065456     -0.88523973903754     -0.80940445376322
  H   1.25926829221459     -0.88519947573807      0.80940613786156
