5
Coordinates from ORCA-job 088CID10038
  O   1.20899148754686      0.00005754626397      0.00011986553933
  C   -1.26271219639751      0.00003380176226     -0.00036707888647
  C   0.04281164081000      0.00004541473463     -0.00011045440840
  H   -1.80284073520395      0.80260498150535      0.47439632164977
  H   -1.80265020675539     -0.80254173426622     -0.47533864389424
