9
Coordinates from ORCA-job 093CID8254
  O   0.00000354074330      0.52636885684668     -0.00003102171672
  C   1.16927649916927     -0.26132981785514      0.00000434326988
  C   -1.16925508396080     -0.26135107377066     -0.00002874077398
  H   1.22778924370343     -0.90247391188869      0.88837362284017
  H   2.01856542233419      0.41693845539289     -0.00000096147662
  H   1.22781314111656     -0.90251787028102     -0.88833162701657
  H   -1.22778249882022     -0.90249445706609      0.88834009511893
  H   -1.22775386130727     -0.90254187099343     -0.88836520527389
  H   -2.01855640297845      0.41690167961546     -0.00006051497120
