7
Coordinates from ORCA-job 094CID7855
  N   -1.77333244422695     -0.18395470008702      0.00000000505650
  C   0.71446680059210      0.48408074549751     -0.00000000762929
  C   1.71604744184380     -0.39439853877046     -0.00000000220312
  C   -0.64985587064119      0.10564699037562     -0.00000000079670
  H   0.90775205688021      1.54992919294110      0.00000000038185
  H   2.74307238423026     -0.05985967815498      0.00000000775499
  H   1.53894963132177     -1.46014401180177     -0.00000000256423
