10
Coordinates from ORCA-job 095CID180
  O   0.00024572646044     -1.32435767163413      0.00209789003026
  C   0.00000653057292     -0.10931603198936      0.00183581094659
  C   1.28059028454849      0.68771112037559     -0.00023992530007
  C   -1.28089055420107      0.68720786358872     -0.00025257994172
  H   1.32234205590463      1.33695756444407     -0.87587745514064
  H   1.32314883311863      1.34035894958095      0.87279386631412
  H   2.13808749192144      0.02340101577362      0.00058924153560
  H   -2.13812681193475      0.02256075548106      0.00058916926942
  H   -1.32289809113399      1.33641958597675     -0.87590390589128
  H   -1.32370546525674      1.33985684840271      0.87276788817773
