8
Coordinates from ORCA-job 096CID176
  O   -0.29837744325847      1.30686100398647     -0.00108315035569
  O   -0.99680796773560     -0.83376918938202      0.00114695796939
  C   1.37190842997836     -0.36376848210242      0.00022208356260
  C   -0.08849262760335     -0.03629110761605      0.00129085277792
  H   1.85139423437668      0.06412029032600     -0.87834840949543
  H   1.85511470582248      0.07264176334568      0.87246470803803
  H   1.50450018482144     -1.43870223347948      0.00486326852153
  H   -1.26143951640154      1.42600794492182     -0.00185630101835
