11
Coordinates from ORCA-job 102CID1049
  N   -1.38967450001158     -0.00029096960717     -0.00002373820440
  C   1.40189672429718      0.00024622918585     -0.00001410634135
  C   0.69370210584228      1.19179689273258     -0.00000471922320
  C   0.69416285518301     -1.19157573498740     -0.00002836395190
  C   -0.69307759360224      1.13809107574303     -0.00001073236997
  C   -0.69263952298966     -1.13840215613144     -0.00003201803228
  H   2.48397743766984      0.00045774007038     -0.00001034058461
  H   1.20248075209180      2.14620965927833      0.00000693793423
  H   1.20330534482266     -2.14579463105651     -0.00003635248113
  H   -1.27606401036157      2.05239411032093     -0.00000288824857
  H   -1.27526958294173     -2.05293221554860     -0.00004369849681
