23
0004
 O         2.929719321843     -1.090441810772      2.318107811433
 N         2.736302498276     -0.887246187221      1.146620858207
 O         3.489003446327     -0.968715268787      0.199912630640
 O         1.397280211592     -0.490687056827      0.877563779782
 C         1.132905183128     -0.239137805023     -0.520393076493
 C        -0.339566262376      0.168458645230     -0.595161639669
 C        -1.277983992117     -0.939202393264     -0.109091695964
 O        -1.045775596452     -2.050250999664     -0.996420277731
 N        -1.790046093335     -3.215783982953     -0.656078463892
 O        -1.562857171725     -4.138654542755     -1.395067244613
 O        -2.535862423552     -3.136486389165      0.296975499183
 C        -0.633754106414      1.444454954012      0.197991390600
 O         0.175186861314      2.467322950682     -0.414427850594
 N         0.087138126976      3.729817494418      0.238713177766
 O         0.788902993190      4.562882961344     -0.274060935294
 O        -0.658929590297      3.808184994681      1.191647308967
 H         1.318210802023     -1.145281188570     -1.099935197553
 H         1.779914402103      0.563026946542     -0.879856355665
 H        -0.556428297576      0.363276421417     -1.652431916376
 H        -1.056426575384     -1.233719666394      0.919242985945
 H        -2.325484399456     -0.630495211875     -0.173614258139
 H        -1.689830288369      1.721431682442      0.129381047073
 H        -0.361519049233      1.337445454304      1.250482422617
