20
0006
 O        -5.112300022719     -0.288709792843     -0.944398009528
 N        -4.493855691112      0.346546882850     -0.099877929850
 O        -4.952209712710      1.160429182181      0.694457614090
 C        -3.055216157144      0.109703367819     -0.033398553918
 N        -2.426798742239     -0.753431261776     -0.867636058667
 C        -1.178658867716     -0.643580875091     -0.465131280910
 N        -0.048346042347     -1.346954675814     -0.895127655005
 N         1.103289286096     -0.631463523406     -0.505796023100
 N         2.308379964891     -0.849549319432     -1.057457991493
 C         3.053711621503     -0.030988523003     -0.326199305485
 N         4.485394085170      0.096196996159     -0.579788013701
 O         5.101271517380      0.865766275601      0.146639345873
 O         4.941070540859     -0.577581030514     -1.497308534119
 N         2.428347220998      0.672397133362      0.648495537753
 C         1.185981409014      0.260418705980      0.511633159667
 N         0.063145457230      0.572564690786      1.285611834518
 N        -1.096058572519      0.253105969815      0.548073501450
 N        -2.306406575547      0.746281485663      0.857866184497
 H        -0.025186325763     -1.510279602115     -1.901439187605
 H         0.024445606675      1.549027913777      1.576981365532
