14
0007
 N        -2.623088177462     -0.435390383285     -0.611567747131
 C        -1.322097504382     -0.187755010746     -0.399230687229
 N        -0.367407446592     -0.750190015826     -1.098887871421
 N         0.856412645803     -0.399221697588     -0.704186911583
 N         1.980246533325     -0.854743126492     -1.272797981685
 N         2.929709513099     -0.220063641530     -0.533009699474
 O         4.124786715135     -0.380403186052     -0.749068860046
 N         2.448116840782      0.595811057005      0.452245244541
 C         1.131052671828      0.465653456558      0.323069389458
 N         0.154702336737      1.055020279615      1.035880920303
 N        -1.066521633404      0.732706736223      0.677915539462
 O        -2.062023958847      1.220778458089      1.257234191916
 H        -2.895784702537     -0.973536427147     -1.419950075948
 H        -3.288003833486      0.131433501176     -0.102745451163
