34
0010
 N        -0.365083464555     -1.438031451255     -2.298789551075
 N        -1.103387110935     -1.105357771597     -1.335942158899
 C        -2.476841430926     -1.262677830902     -1.525887530523
 N        -3.114077457164     -1.964186342100     -2.436574388651
 O        -4.428267536367     -1.840264866211     -2.114057342255
 N        -4.630844408967     -1.053773964303     -0.996167877296
 C        -3.430535658981     -0.698024967418     -0.620011288082
 C        -3.105587784471      0.127552000858      0.537276659551
 N        -3.592652161476     -0.063294685767      1.738345340173
 O        -2.949475440460      0.840752406683      2.537992642277
 N        -2.050859311907      1.598165655493      1.839092845360
 C        -2.134167402611      1.178782124242      0.601430911233
 C        -1.348116309964      1.761105846253     -0.482104192997
 N        -1.888531991152      2.156111662373     -1.606737350998
 O        -0.836707086679      2.603852352854     -2.374273784227
 N         0.356885671140      2.499845957022     -1.725458519973
 C         0.063683925320      1.984571053852     -0.552088347157
 N         0.967036524733      1.512936694403      0.398210324774
 N         2.085753405191      2.090449934408      0.439791210507
 C         2.951195294766      1.436955223257      1.322093628295
 N         4.070004925002      2.019655215957      1.685581402322
 O         4.665870264507      1.153700615356      2.537872644877
 N         3.930300904100     -0.005178974689      2.708234614795
 C         2.866070200225      0.151786251924      1.967277595805
 C         1.825398241655     -0.870073233492      1.847880013630
 N         1.207928587442     -1.380553940419      2.881626913624
 O         0.296910325758     -2.264022858908      2.362895027467
 N         0.346354438180     -2.303846483671      0.996305033243
 C         1.280062572781     -1.454325210434      0.655649836791
 C         1.701052898288     -1.229596118962     -0.723886430735
 N         2.961118224904     -0.984088646874     -0.984096329047
 O         3.045537328609     -0.869805043822     -2.351785741619
 N         1.844926072551     -1.062965663292     -2.952164695102
 C         0.989244751467     -1.266354940818     -1.977531116088
