18
0011
 N        -1.240632603831      1.533997830451      0.562460699724
 C        -0.967686125132      0.340392245752      0.053975795889
 C        -1.812596133509     -0.750634215986     -0.251075440831
 N        -3.250079512202     -0.651938381424     -0.002773447152
 O        -3.649483416505      0.425953441327      0.478053518882
 O        -3.961947216150     -1.599688768914     -0.270550555624
 N        -1.398760604936     -1.915990177039     -0.768820157728
 N        -0.150869653318     -2.167160884477     -1.049345825591
 C         0.733511878797     -1.174831934443     -0.788794047848
 N         2.052282907578     -1.138433744540     -0.966801876277
 C         2.364270663905      0.089117956576     -0.530492611487
 N         3.745908320046      0.592596560000     -0.534351625073
 O         4.603510430220     -0.167465522165     -0.957621486016
 O         3.907776136249      1.731893151610     -0.110895331228
 N         1.386042030332      0.874349726053     -0.079656092603
 N         0.330750163569      0.047187841359     -0.250430012907
 H        -0.483939957284      2.191319419134      0.709593793371
 H        -2.208057307830      1.739335456726      0.783424702501
