58
0012
 O        -6.299648735037     -2.527002910000      2.818512126379
 N        -6.589740812611     -2.008352518574      1.773200223559
 O        -7.600813081800     -2.086911860342      1.107299268974
 O        -5.545813987494     -1.174342159468      1.270273562531
 C        -5.872208440808     -0.555325838305      0.014892276527
 C        -4.657891062584      0.285182442062     -0.417797209791
 C        -3.407756501921     -0.606528848325     -0.438474355660
 O        -2.324576706041      0.213420745670     -0.916528935853
 C        -1.095856856852     -0.307860159010     -0.891321702769
 N        -0.928113292923     -1.582267432552     -0.506887289861
 N         0.298773506997     -2.060413561814     -0.494812171604
 C         1.274909590208     -1.218862251761     -0.870246055212
 O         2.501861003540     -1.752368616563     -0.832052238294
 C         3.634938188548     -0.978568315151     -1.277038562446
 C         4.453343063622     -0.448736420808     -0.078140793140
 C         3.537055819384      0.462593026440      0.759149269972
 O         4.362252183927      1.186115668719      1.687425057803
 N         3.614955105856      2.058124362750      2.534588215280
 O         4.317091054099      2.685694437982      3.282213492011
 O         2.408908373813      2.055941955707      2.400597469787
 C         5.622979917394      0.391045202310     -0.619609456043
 O         6.356774822916     -0.477928074800     -1.505362782678
 N         7.538069922669      0.118773481554     -2.042303352358
 O         8.143278525021     -0.633094023484     -2.761242716361
 O         7.769071556507      1.264020836337     -1.723277479319
 C         4.954980751109     -1.670351923485      0.710370039558
 O         5.798553535027     -1.185099738989      1.768594667311
 N         6.395185300569     -2.228956171506      2.535052941016
 O         6.111262141032     -3.368667468051      2.231774767148
 O         7.115938840419     -1.808142970427      3.401846991531
 N         1.103019575016      0.052899846160     -1.256090441128
 N        -0.123753844763      0.532391247692     -1.273077910315
 C        -4.439411576127      1.523028846957      0.473032874789
 O        -3.929160091218      1.056484680993      1.733789919355
 N        -3.585823563495      2.112960744787      2.627020705790
 O        -3.127219457845      1.707103747910      3.662772789800
 O        -3.793194746726      3.246244634553      2.247827176106
 C        -4.917092993549      0.774980363030     -1.854518696499
 O        -6.103302125681      1.589874481663     -1.797555614781
 N        -6.467271538064      2.154540061745     -3.060528024637
 O        -5.763273899529      1.877310847790     -4.007068009366
 O        -7.452456804666      2.839925815085     -2.988544010519
 H        -6.084244056115     -1.330151731224     -0.729134879154
 H        -6.759399397136      0.071986160109      0.121894826098
 H        -3.179262054950     -0.981717300483      0.558384267972
 H        -3.544401512683     -1.461830482616     -1.109129196825
 H         4.238297705335     -1.671042097647     -1.863942898944
 H         3.304939032922     -0.154119804765     -1.910211392645
 H         3.004915379537      1.168084058250      0.116011788342
 H         2.800981211109     -0.132474424159      1.305506411443
 H         5.255609222934      1.260689831362     -1.173866867181
 H         6.266741415800      0.731440898155      0.190601688514
 H         5.530827083362     -2.330778917658      0.058072198186
 H         4.113876340868     -2.230975645077      1.125192475912
 H        -3.709597436479      2.192512189580      0.012876107761
 H        -5.373789164699      2.068070288124      0.622678527208
 H        -4.074274368006      1.362307386466     -2.222559972039
 H        -5.079942059741     -0.070576622902     -2.530129111244
