28
0027
 O        -0.313784767447      2.396761184185     -2.184056634719
 N         0.501726056639      2.124383333438     -1.311956950389
 O         1.716265531450      2.302490312098     -1.364106934514
 N        -0.010427920929      1.585041559486     -0.129664852587
 C        -1.398927715485      1.078691574772     -0.160381514477
 N        -1.514765297100     -0.232336674972      0.425206971242
 N        -1.779534300215     -0.317125227784      1.794044348900
 O        -1.838751627633     -1.444725487942      2.268192316178
 O        -1.955397215359      0.739899176194      2.395143137836
 C        -0.998431614412     -1.445892194805     -0.242585259893
 N         0.148063608972     -1.167912507972     -1.069269069223
 N        -0.074877804600     -0.830779708655     -2.406299395159
 O        -1.238094302989     -0.853343760385     -2.801223890783
 O         0.917401425526     -0.567454968775     -3.074017502724
 C         1.474858331232     -0.848594270727     -0.501013367293
 N         1.377137059515     -0.184799275839      0.773724013439
 N         1.352701856472     -0.976516795825      1.924199690402
 O         1.235152136837     -0.384646371237      2.989880862402
 O         1.477247308757     -2.189079773760      1.770161066540
 C         0.922512186657      1.215778704222      0.903967397140
 H        -2.055116357970      1.753686867140      0.384295181899
 H        -1.706628776326      1.028073080455     -1.203160140628
 H        -0.710439678785     -2.150850910174      0.535054007840
 H        -1.771180488117     -1.885166052855     -0.869301168500
 H         1.982935795804     -0.190726181655     -1.203648784545
 H         2.053071421862     -1.759887879625     -0.366519355282
 H         1.773230078649      1.891352805462      0.851492439737
 H         0.434155068995      1.313479445536      1.871743387162
