24
0029
 O         1.131313331752      3.217474648199      1.080263976017
 N         0.445671096221      2.835304612519      0.146394712025
 O        -0.075325354012      3.500661075941     -0.733459542039
 C         0.215623477209      1.371720893279      0.070886114334
 C        -1.080762868617      0.874698693122     -0.003342695336
 N        -2.233890460355      1.807972659429     -0.006819109946
 O        -3.017277395343      1.680462051222     -0.933270550693
 O        -2.275819611437      2.603422717142      0.917179117178
 C        -1.296385951460     -0.497025767685     -0.074273286595
 N        -2.679568912101     -1.027323202542     -0.153695836973
 O        -2.906789440654     -1.779979162202     -1.086515115134
 O        -3.442309706384     -0.654196529018      0.722244584778
 C        -0.215625186596     -1.371731164974     -0.070843294130
 N        -0.445664768700     -2.835305760932     -0.146552995789
 O         0.146030239946     -3.420228824429     -1.038764871779
 O        -1.201997573069     -3.297900098549      0.691443544000
 C         1.080757050699     -0.874713637470      0.003488377730
 N         2.233871291618     -1.808002796272      0.007299404012
 O         3.087967932729     -1.600046018298     -0.838596117775
 O         2.205078322128     -2.683913142653      0.855959277331
 C         1.296385384801      0.497016798550      0.074287397006
 N         2.679581778614      1.027329498309      0.153373344583
 O         3.371610864696      0.573754311156      1.049829665040
 O         2.977526458314      1.860448146156     -0.686516097846
