22
0037
 C         0.402963428855      1.585344372391      0.093205364819
 C        -0.932200673314      1.238418305864      0.069928493008
 C        -1.340030696703     -0.139682059443     -0.011180175448
 C        -0.287129877016     -1.129714476109     -0.066418486039
 C         1.111150767306     -0.760906688330     -0.041767813415
 C         1.410836248675      0.644596585768      0.040777262264
 N         2.765458314127      1.165280878720      0.074218072060
 O         2.915720523452      2.382615757133      0.145415241101
 O         3.726758568290      0.373906103343      0.030392483052
 N         2.096148989504     -1.652297241455     -0.091421013583
 N        -0.640602210929     -2.520393579075     -0.148179348607
 O         0.248112647707     -3.389711378007     -0.197217879062
 O        -1.836931481617     -2.861333274737     -0.170294311888
 N        -2.631518154225     -0.454122987364     -0.032420278076
 N        -1.874192675251      2.341159419073      0.131932178151
 O        -3.097083177169      2.103350219793      0.115249932502
 O        -1.424892127719      3.482705211272      0.199418428124
 H         0.668825086658      2.631333313377      0.154701189482
 H         1.853116516086     -2.633499703386     -0.149253178568
 H         3.045030474309     -1.290438402033     -0.068140151133
 H        -3.292731054653      0.315802999928      0.010838797201
 H        -2.886509432263     -1.432313377212     -0.089784815355
