24
0038
 C         0.759107133670      1.195474783548     -0.316726861728
 C        -0.685106044082      1.213506358321     -0.352330090397
 C        -1.450415894850      0.042016810997      0.006860530288
 C        -0.750674227279     -1.167411987903      0.374881036632
 C         0.691134741311     -1.237823568629      0.309796823921
 C         1.436834984162     -0.045937261518     -0.022404980194
 N         2.869242792933     -0.093485054754     -0.051472374455
 O         3.476317390557     -1.174277747120      0.095390024854
 O         3.540550734214      0.944201193421     -0.227026089642
 N         1.321941535016     -2.376986991541      0.566589432147
 N        -1.498320092478     -2.323196174999      0.774615728541
 O        -2.742151421632     -2.278490133234      0.870996171245
 O        -0.921757014134     -3.396646180456      1.046229336727
 N        -2.777273458004      0.077827682241      0.003845755853
 N        -1.368489547817      2.417839441925     -0.722959710945
 O        -2.610599919490      2.435903996522     -0.845675448245
 O        -0.736289294066      3.472328333943     -0.939090376399
 N         1.452955889674      2.297952472627     -0.570915137791
 H         0.752514598122     -3.177671599960      0.820916091664
 H         2.334184011071     -2.375997883463      0.494209771061
 H        -3.266803145540     -0.759801324207      0.301519590069
 H        -3.219813714704      0.940746056576     -0.295007824852
 H         0.928159576929      3.139550239703     -0.786081617810
 H         2.464950386416      2.230178537961     -0.536059780544
