24
0059
 N        -2.402199378524      3.979287644412     -0.086985019427
 N        -1.530118257275      3.284858472363      0.109972977215
 N        -0.452605883440      2.711727132904      0.365631938185
 C        -0.270959457998      1.353662943361      0.179545454967
 C        -1.244759009353      0.348141434012      0.011985779314
 N        -2.678883133753      0.690189630351      0.036278083917
 O        -3.357649516333      0.304626567754     -0.904005927614
 O        -3.057961876912      1.341164126828      1.004291195007
 C        -0.884474494140     -0.984898996442     -0.168906958994
 N        -1.941887632864     -2.007425044861     -0.376032127557
 O        -1.886870658595     -2.622544596960     -1.427596865668
 O        -2.755423979912     -2.122202900592      0.526051990867
 C         0.447702862972     -1.370024536176     -0.147201974974
 N         0.822856643759     -2.785934763502     -0.334508254989
 O         1.729451957633     -3.000083023407     -1.125838192583
 O         0.189692308996     -3.604646911191      0.315346019864
 C         1.427787907666     -0.398769382032      0.046867423284
 N         2.856279518090     -0.785432958438      0.139564615266
 O         3.620815437351     -0.199760842593     -0.610708649473
 O         3.122160712792     -1.640336874309      0.968770145503
 C         1.075605173927      0.930301822426      0.186312343317
 N         2.134961170489      1.947641897842      0.380119319984
 O         2.240196130893      2.792790406484     -0.492241250856
 O         2.796283454530      1.837868751766      1.403387935446
