17
0060
 N        -0.270151541415      3.900716614666     -0.954223166689
 N        -0.336160195754      2.801589940150     -0.717337268172
 C        -0.219300483638      1.512892938000     -0.395366838396
 C        -1.329127881051      0.650009007284     -0.480410453946
 C        -1.127278974133     -0.663422518970     -0.150853842094
 N        -2.250526325692     -1.591638698338     -0.228497484640
 O        -3.335593380999     -1.140104721628     -0.597579209930
 O        -2.036777935976     -2.762595046404      0.079998012416
 C         0.141903975110     -1.144443233244      0.268379032644
 C         1.211735767438     -0.307552927542      0.376852347972
 N         2.468231144101     -0.881502191588      0.877041004829
 O         2.655533511649     -2.081081937932      0.668219550771
 O         3.222758314682     -0.135632884753      1.488166715379
 C         1.168311880762      1.120418251048      0.027767065258
 O         2.087566304279      1.920659735327      0.023223102383
 H        -2.306595176993      0.995975616179     -0.794228374924
 H         0.255370997630     -2.194387942255      0.508749807140
