21
0068
 O        -2.212704569500     -2.883776004874      0.193540524168
 N        -1.918909568239     -2.087488315108     -0.689573734478
 O        -2.358302036364     -2.071119632296     -1.833085281509
 C        -0.940994483862     -1.043790627746     -0.340754146580
 C         0.349997187146     -1.435087679252      0.031396077742
 O         0.617953312955     -2.721801007080      0.021655732226
 C         1.311971826528     -0.430506457994      0.371428517664
 N         2.649480014232     -0.832518634007      0.744807779342
 O         3.482241166725     -0.003026785103      1.060600658914
 O         2.912291211205     -2.065380694863      0.729702423174
 C         0.954161953828      0.940934049242      0.340623294770
 O         1.841461326749      1.857002774638      0.657817006009
 C        -0.382544983972      1.296007017073     -0.042462963655
 N        -0.769991823782      2.660646880443     -0.076331403823
 O        -1.933479174510      2.967680453157     -0.403081936552
 O         0.051408785916      3.554850698746      0.220054099399
 C        -1.338558619456      0.285889163881     -0.394471388518
 O        -2.585585315063      0.547045946040     -0.740616505134
 H         1.579473434159     -2.811546603617      0.294504993179
 H         1.392596124137      2.744320339382      0.570870141463
 H        -2.702165768832      1.531965119337     -0.716523887802
