18
0070
 C         0.640570503219      1.625567799437      0.303137824739
 C        -0.739958326595      1.666775417172      0.248283394502
 C        -1.475037938337      0.496952697289      0.026849042432
 C        -0.785476077496     -0.731558217321     -0.148484796561
 C         0.647761448050     -0.779377507826     -0.108970231784
 C         1.333165404230      0.430536881183      0.144256093986
 N         2.792744217606      0.490957527825      0.239408259351
 O         3.309262659511      1.602717018788      0.087489351082
 O         3.410615105541     -0.539005831285      0.484220691207
 O         1.327073683179     -1.890312873237     -0.320654830431
 N        -1.528337016703     -1.956634555438     -0.358165459478
 O        -2.733512814045     -1.978122100607     -0.174037752810
 O        -0.893697050596     -2.979162366526     -0.723781935875
 O        -2.815724772141      0.536760054671     -0.043808050530
 H         1.219220646643      2.525891585686      0.466732664970
 H        -1.265687945079      2.608257202092      0.378484236921
 H         0.657935103351     -2.591219520380     -0.556606290275
 H        -3.101016830336      1.460776788476      0.055547788553
