20
0072
 C         0.857405907468     -1.187196306800     -0.572342296264
 C         1.657215473032     -0.304493215651      0.138534092532
 C         1.117509396701      0.824344649137      0.737406085833
 C        -0.239294862680      1.078745349539      0.627167180105
 C        -1.131975036408      0.207980455340     -0.094627993497
 C        -0.500687193519     -0.942763036741     -0.689071159603
 N        -1.260908073259     -1.928779164942     -1.456725408636
 O        -0.652402319744     -2.881108562198     -1.931712299646
 O        -2.483779956103     -1.765592636248     -1.597289406506
 N        -2.437581149228      0.447847078745     -0.203739664745
 N        -0.715149506157      2.291908916535      1.291436068709
 O        -1.922500971573      2.575124408097      1.229024939376
 O         0.105698556723      2.981753756531      1.885696646372
 N         3.090192471273     -0.567800606571      0.258351945674
 O         3.525852758133     -1.579904844112     -0.288167328553
 O         3.761297751484      0.240936771685      0.897413560877
 H         1.285815739655     -2.065035233466     -1.036350065138
 H         1.747786978476      1.507673732879      1.289901251509
 H        -2.998644098899     -0.212648225666     -0.728256519365
 H        -2.805751864069      1.279106724030      0.243050377555
