22
0077
 C         2.963704600007      0.232883274163      0.663286168421
 O         2.048194694454      0.377515699024     -0.454637489752
 C         0.745211290433      0.155519903208     -0.241967613062
 C         0.152300398199     -1.106566927623     -0.483921607441
 C        -1.216062578691     -1.321733870085     -0.392892238439
 C        -2.033780361882     -0.257621132247     -0.042821880626
 C        -1.523836167154      1.015831959547      0.161676368214
 C        -0.152185141063      1.206032649485      0.064714755574
 N         0.324021588859      2.589076811763      0.251265301740
 O         1.435807578125      2.761443168239      0.739351870383
 O        -0.450176981146      3.481583792787     -0.084000459479
 N        -3.483412510865     -0.478122123916      0.082099002577
 O        -4.174261447584      0.491923497492      0.381107355996
 O        -3.896627544375     -1.616725284818     -0.119155125061
 N         0.963217414553     -2.265584800541     -0.900421453189
 O         2.109728305175     -2.357380919728     -0.474871281934
 O         0.413471363856     -3.077365307306     -1.640114585572
 H         2.937303602237     -0.794095267245      1.026464017879
 H         3.944086836100      0.460727405376      0.247081772286
 H         2.707357086135      0.952050131548      1.440695361335
 H        -1.634053371112     -2.297171263738     -0.603108369796
 H        -2.179808654262      1.847878604618      0.380270129945
