24
0078
 C        -3.059074721911      0.615297792813     -0.758394327803
 O        -2.123779190921      0.901669701127      0.294909626596
 C        -0.859156025252      0.503984112564      0.256922540417
 C         0.116969027990      1.419284079779      0.714440292465
 N        -0.223950527829      2.798381465753      1.074701911970
 O         0.474898021727      3.326979760074      1.940008743397
 O        -1.140793209544      3.348479481051      0.471980510094
 C         1.450063685083      1.067211029097      0.772100920968
 C         1.891242137304     -0.159984924482      0.298506680288
 N         3.324127555978     -0.393812677396      0.351174718251
 O         4.037822209104      0.492307512767      0.812846953436
 O         3.773985756242     -1.475603329081     -0.067090537957
 C         0.976121744834     -1.122347756211     -0.240183681919
 N         1.379327275189     -2.295524506309     -0.734053593438
 C        -0.416400297682     -0.769209355251     -0.162353961006
 N        -1.400115221713     -1.819488316595     -0.369067419995
 O        -2.392647336212     -1.831004928660      0.353980480438
 O        -1.182766426986     -2.673905478414     -1.244051627554
 H        -3.778716039777     -0.127963259250     -0.415510099124
 H        -3.550207101910      1.565244317125     -0.974497548643
 H        -2.540862934588      0.252799982500     -1.650939828066
 H         2.174142640913      1.776715160015      1.149505051841
 H         0.699006297468     -2.897482114224     -1.179013600382
 H         2.370762682492     -2.502227748791     -0.696022204274
