31
0081
 O        -0.557510670943      0.125755253391     -2.387008375609
 C        -0.213789246990     -0.247141895314     -1.292074367850
 O        -1.036492440289     -0.909789408005     -0.420779972586
 C        -2.401300622077     -1.014828148295     -0.790916635982
 C        -3.243025106972     -0.185684221995      0.177320875400
 N        -4.720938885869     -0.546732667213      0.043218785862
 O        -5.393180470297     -0.509596946094      1.055277594838
 O        -5.075050664993     -0.821923260472     -1.093034187653
 N        -3.119292795434      1.318447250743     -0.064198916692
 O        -1.975206028096      1.738822816291     -0.106036234652
 O        -4.154551887469      1.945220501391     -0.193012563138
 N        -2.850074943682     -0.467913843679      1.631568425147
 O        -2.705898712123      0.484853268612      2.371165175200
 O        -2.744909813972     -1.655276165642      1.891806920915
 C         1.144723010907     -0.068412092391     -0.717389928653
 C         2.108107995440      0.552981518836     -1.518744953287
 C         3.382997887682      0.744917520424     -1.002945815540
 N         4.404544718823      1.398584515110     -1.845648601651
 O         5.518939156924      1.555391158189     -1.355598632631
 O         4.066066550315      1.736992212392     -2.975857082645
 C         3.736208426968      0.344161661767      0.280613971747
 C         2.753852411553     -0.268846742423      1.048427590549
 N         3.095862107656     -0.707825446168      2.416297491318
 O         2.209235486077     -1.251952112537      3.068362909778
 O         4.241708345148     -0.498688770410      2.802841048334
 C         1.463242632346     -0.484696890493      0.578915084601
 H        -2.702890592230     -2.057724717778     -0.691248294128
 H        -2.561414633049     -0.668326610845     -1.812208393386
 H         1.862782937091      0.880143082025     -2.521104272617
 H         4.734156327249      0.503517861348      0.665621666437
 H         0.732899520307     -0.964428680765      1.215969688570
