26
0083
 O         3.793942671150      1.435570250758      0.868842165773
 N         3.038062195870      0.822253458662      0.128085686259
 O         3.363501666696      0.201904510649     -0.882480200722
 C         1.590092640757      0.911346305479      0.402871663455
 C         1.144013971610      2.135258276301      0.829627211472
 C        -0.237412512745      2.369183638488      0.945997177334
 C        -1.123996630060      1.404444209199      0.543115738410
 N        -2.538593970129      1.659346817245      0.880754232086
 O        -2.938831742349      2.813040563359      0.809806449950
 O        -3.182852894910      0.695641559511      1.290863417026
 C        -0.700157869309      0.153440499077      0.001034961069
 C        -1.556811208314     -0.816934727444     -0.601474886603
 N        -2.912064355212     -0.464805937689     -1.069828320855
 O        -3.761855626360     -1.344547322964     -1.057871871157
 O        -3.055617518445      0.671553659539     -1.517116074206
 C        -1.121494276879     -2.071377711082     -0.941973057008
 C         0.214892824887     -2.433079582805     -0.697343769617
 C         1.090715213769     -1.498871129194     -0.208204962900
 N         2.412596133211     -2.016809671499      0.197296264454
 O         2.906744610793     -2.904079182528     -0.484468610252
 O         2.874968801771     -1.569114894671      1.245040380622
 C         0.700157883396     -0.153448147291      0.067118780416
 H         1.864647076999      2.905139633331      1.075493067445
 H        -0.615362363642      3.301924153185      1.345532480243
 H        -1.816636921535     -2.768942773787     -1.392149815658
 H         0.567352200837     -3.438136444609     -0.892568103539
