34
0084
 C        -2.733749788148      1.299513416769     -1.619100808998
 C        -3.149093287420      0.595379615790     -0.346166092519
 C        -2.253311659559      0.854842018943      0.860603052496
 O        -0.990359925890      0.245860570774      0.540681211176
 C         0.102188465092      0.859202279352      1.018303090395
 O         0.149912269654      1.889594181663      1.634908774694
 C         1.344938914875      0.065117652278      0.662677374919
 C         2.154696300824      0.416939397354     -0.425525902119
 N         1.745937846045      1.500403077196     -1.345863681520
 O         2.593347099446      1.926798890664     -2.119394686822
 O         0.581448515331      1.887687848407     -1.281710868027
 C         3.350792466795     -0.227593932201     -0.715505657805
 C         3.743454267756     -1.272187215904      0.107294131420
 N         5.007287916654     -1.978465336703     -0.186771831427
 O         5.642799804778     -1.597340494517     -1.164148640256
 O         5.323833510578     -2.890824695405      0.568919826641
 C         2.984570537116     -1.676023037959      1.194742507670
 C         1.801309422399     -0.995357127327      1.456432301792
 N         1.023755292040     -1.442522650740      2.636153103578
 O         0.030864747013     -0.788894980954      2.940039264502
 O         1.432194913304     -2.433264457197      3.229099242473
 N        -3.222944739773     -0.930976004450     -0.544460245994
 O        -2.786796087848     -1.389112362529     -1.586788464758
 O        -3.690895499774     -1.558709932959      0.396091773553
 N        -4.583032388645      0.999172471462     -0.003803192119
 O        -4.736746534499      1.717010112148      0.975651387098
 O        -5.449311888731      0.610229409347     -0.771295555758
 H        -2.778972972492      2.380362099530     -1.455866361524
 H        -1.708564948734      1.025927962303     -1.867608657439
 H        -3.398213705276      1.022623284547     -2.437944188805
 H        -2.653617641125      0.379666577563      1.756433236232
 H        -2.131215507231      1.923949461707      1.027131195364
 H         3.953171768222      0.076641148689     -1.560757764337
 H         3.300422517223     -2.495549247641      1.825951126226
