22
0100
 C         2.568315582832     -0.258503936825      0.268394379480
 C         1.090002496814     -0.021674722171      0.104602487735
 C         0.208654408807     -1.096636338819      0.038505382290
 C        -1.182174692829     -0.988708399023     -0.147069966674
 C        -1.699653271747      0.320771432882     -0.281328700480
 C        -0.861276996420      1.427791753264     -0.234777745155
 C         0.496888243000      1.258222375051     -0.033160498865
 N         1.289433446878      2.494528582760      0.047825638836
 O         2.376448297555      2.445649601820      0.621227689529
 O         0.800856403699      3.508996464234     -0.445164469776
 N        -3.121254894695      0.541501821755     -0.470724406427
 O        -3.530889900080      1.685783188743     -0.585777390594
 O        -3.865146401634     -0.462653121301     -0.506936317304
 O        -1.906902551639     -2.096744472530     -0.166242605569
 N         0.736064278104     -2.470440942904      0.162916020887
 O         0.700806468141     -3.167813247201     -0.842520451599
 O         1.179176003274     -2.793256926043      1.260059357541
 H         3.142639284386      0.428324537522     -0.353333913496
 H         2.867129918956     -0.073486849850      1.304288248088
 H         2.834051503922     -1.283736896879      0.010491028474
 H        -1.273363226242      2.420922469953     -0.351136595398
 H        -2.849804401082     -1.819036374438     -0.300337171520
