37
0107
 C         3.238012579257      0.353410185770      2.247221283559
 C         2.569594984523      0.122291230442      0.917588072572
 C         3.248088391590     -0.082257139620     -0.293530173275
 N         4.721114308163     -0.156127457819     -0.349548653940
 O         5.313885386953     -0.517366542181      0.664320753132
 O         5.252124144179      0.126793278316     -1.419263240902
 C         2.590517278812     -0.238731094680     -1.508754281765
 C         1.210975309183     -0.222743977732     -1.538723808264
 N         0.549034890027     -0.420124077372     -2.831939601918
 O         1.260060615121     -0.570415277223     -3.817471121137
 O        -0.683227110198     -0.422442310729     -2.842740271639
 C         0.454303353389     -0.024802865762     -0.378215321686
 C        -1.043079009582     -0.023639116324     -0.330447087295
 C        -1.794368910008      1.159415674247     -0.437882435409
 N        -1.136525653829      2.450072887655     -0.723204656656
 O         0.004968499875      2.420529561515     -1.177108109180
 O        -1.782322533936      3.465574137867     -0.499337139405
 C        -3.171839769975      1.193604453116     -0.284108487188
 C        -3.830852946581      0.008018550902      0.003710644113
 N        -5.298013059839      0.022059967684      0.160707951910
 O        -5.840576540320     -1.046206590472      0.424129269913
 O        -5.863417644797      1.100884897943      0.015180082654
 C        -3.148276880991     -1.185590608956      0.162954884888
 C        -1.767938197166     -1.181318746904     -0.000732454720
 N        -1.092348009257     -2.486343483269      0.165604568845
 O         0.029762816889     -2.615293349806     -0.318636987940
 O        -1.708574899184     -3.357876360493      0.765733625403
 C         1.170403708705      0.141274879336      0.805786089568
 N         0.380139728008      0.330776203506      2.039001524070
 O        -0.285847635236      1.359799169946      2.123049764520
 O         0.439102727275     -0.560968981656      2.877063392773
 H         2.578961918265      0.891556509004      2.929785754088
 H         3.503325684901     -0.603200140234      2.707405788878
 H         4.161707800939      0.918259003864      2.126770871465
 H         3.153171898975     -0.375625618295     -2.421868547057
 H        -3.712211404026      2.125932428822     -0.374704869493
 H        -3.669935820105     -2.099479280410      0.412302926518
