38
0109
 C        -4.061670775271     -1.327491556687      0.244548880577
 C        -4.537797676314     -0.867544539939     -0.972472990279
 C        -3.705147452247     -0.253944093277     -1.896588359804
 C        -2.370912383613     -0.078991050906     -1.557915624575
 C        -1.801310880348     -0.545965343628     -0.357189630355
 C        -2.708653830093     -1.178021436771      0.521727680060
 N        -2.264413510917     -1.694413901212      1.835309678531
 O        -3.132591502382     -1.875971863264      2.682221560121
 O        -1.066527247928     -1.914939830300      1.994846223690
 C        -0.351817766247     -0.458262579562     -0.090568041543
 C         0.329995958992      0.691236858754     -0.010935718751
 C         1.782634767751      0.712647017252      0.225940337177
 C         2.663684434885     -0.098541186141     -0.515009886672
 C         4.028770320468     -0.166587547201     -0.281955766380
 C         4.564284638905      0.667329445439      0.690190770708
 C         3.770000717366      1.527419603281      1.431709140406
 C         2.399810679222      1.524420151551      1.199930073043
 N         1.595855781736      2.405679098837      2.075517141566
 O         2.195618327533      3.295991072081      2.668653217786
 O         0.390261768423      2.185152508684      2.162253439666
 N         6.016441473649      0.635148094748      0.940444458135
 O         6.682847145336     -0.137770423508      0.258096068720
 O         6.451198140590      1.382402507303      1.811065951851
 N         2.168990531119     -0.914534306662     -1.646526788377
 O         2.508825932999     -2.094482794138     -1.653075310689
 O         1.495921462655     -0.349454471632     -2.498602773958
 N        -1.551512737162      0.597272641762     -2.584549955340
 O        -1.491618619898      0.049960806307     -3.677563606815
 O        -1.044106725295      1.672218044403     -2.280751572373
 N        -5.965098484733     -1.040788907905     -1.298242726181
 O        -6.348278153207     -0.599084666980     -2.377652131418
 O        -6.663469357381     -1.612800382249     -0.467434687702
 H        -4.723527722688     -1.790914998128      0.963022266121
 H        -4.090292072981      0.075992968844     -2.852913195790
 H         0.146656001501     -1.405472609676      0.078749703475
 H        -0.175818540214      1.642828183647     -0.084808477412
 H         4.663092291322     -0.832663694395     -0.852325806085
 H         4.199775064465      2.173243181267      2.184956458864
