40
0110
 C        -3.783640495000      0.483966357555     -0.830951797646
 C        -3.405026390539      1.796652050674     -1.051881788046
 C        -2.268346042691      2.326057987388     -0.465399052417
 C        -1.475727788315      1.486292732928      0.307028905329
 C        -1.759701052579      0.124679876441      0.541146946025
 C        -2.968350864094     -0.317667033272     -0.040230548010
 N        -3.481767425643     -1.692172549434      0.161357793006
 O        -4.695966892829     -1.844016013015      0.073560654757
 O        -2.679387410873     -2.595325803153      0.389850449892
 C        -0.907876372551     -0.750602498962      1.431292103178
 C         0.068174719124     -1.721778357631      0.696843668632
 C         1.413436324686     -1.144224984664      0.321629774058
 C         1.731906320274     -0.732060017572     -0.989147657341
 C         2.975211188920     -0.244861479188     -1.372455694054
 C         3.965205833176     -0.147336134387     -0.409816152356
 C         3.751623181599     -0.578254085343      0.887872153535
 C         2.496485491596     -1.071676065691      1.225093104941
 N         2.384807826477     -1.537637346254      2.626488490488
 O         1.281687000888     -1.519969782150      3.169186480742
 O         3.422203673521     -1.906341052345      3.167702650421
 N         5.281130533446      0.398947752940     -0.782366294522
 O         5.426521597897      0.761047643644     -1.946456250963
 O         6.134690902500      0.452609305757      0.097711362713
 N         0.742655997406     -0.785985283026     -2.083533401634
 O        -0.433482316295     -0.533434874982     -1.820074729171
 O         1.167058786417     -1.050402493691     -3.202446631677
 N        -0.282303226093      2.141368287090      0.877833608434
 O         0.757400627790      1.487119267010      0.964248473705
 O        -0.397043720552      3.317517994857      1.202652561925
 N        -4.243302212390      2.656716532651     -1.904208071193
 O        -3.872017247121      3.815867138777     -2.065073873514
 O        -5.250179003027      2.151649543105     -2.391125206655
 H        -4.697386729180      0.092138087745     -1.255679572960
 H        -2.005080643844      3.365500953515     -0.605921947733
 H        -0.343752624798     -0.136711265702      2.126070953531
 H        -1.571799910918     -1.380967702431      2.022785567882
 H        -0.423319728316     -2.121822198000     -0.184186388653
 H         0.235118122233     -2.554681729689      1.379793875110
 H         3.165508072362      0.051119850616     -2.395040359104
 H         4.544931897336     -0.541022612114      1.621445839346
