29
0121
 C         2.110435455303      1.210344023419     -0.314268168686
 C         2.778991579375      0.199156850856      0.358703827054
 C         2.115033328391     -0.892492908591      0.895941652214
 C         0.734680908709     -0.953536627325      0.765451980990
 C         0.014783407492      0.033251271794      0.078967257728
 C         0.735220087032      1.105561812631     -0.464132777806
 N         0.068976196555      2.184933312011     -1.219581294730
 O         0.644186465705      3.265700243596     -1.248810129036
 O        -0.994812418562      1.925596776674     -1.775771305770
 N        -1.401438304245     -0.062043293829     -0.074769250660
 C        -2.094555694844     -0.695090231591     -1.090116493791
 C        -3.439225354342     -0.549810627420     -0.820741537048
 N        -3.599822294233      0.146722745084      0.336540112502
 C        -2.386357618704      0.418550417524      0.748053476985
 N        -2.080592031346      1.128908883036      1.973814436288
 O        -0.881574795952      1.341539245849      2.192485787660
 O        -3.016810623054      1.460407558081      2.677821118246
 N        -1.457696982765     -1.317640010904     -2.205629900597
 O        -0.222044022588     -1.315298406022     -2.233580316896
 O        -2.198048363703     -1.813747073709     -3.048488302144
 N         0.064326587217     -2.113306882853      1.385904679866
 O         0.738228135980     -3.127659638277      1.515302084225
 O        -1.102823927279     -1.979173361968      1.744371457322
 N         4.245565043263      0.287449588301      0.506929178079
 O         4.797372608701     -0.617069092479      1.124468757660
 O         4.798073527900      1.258350964147      0.000999693116
 H         2.644370760130      2.059622462971     -0.718859330457
 H         2.654737055941     -1.677881993604      1.407812555434
 H        -4.269278716076     -0.911246007401     -1.408819247749
