25
0124
 O         3.878970643987      2.520136327130      0.907860540845
 N         3.640151918080      1.327535666880      1.072623168361
 O         4.416710358583      0.496125263224      1.533326708153
 C         2.301894871578      0.851407473792      0.682537767488
 C         1.391825062932      1.756196711232      0.153409127702
 C         0.151003108035      1.280900013294     -0.246775168249
 N        -0.720477006132      2.244151898040     -0.953083588468
 O        -1.273762672787      1.855999648407     -1.973487348898
 O        -0.781483592238      3.372830726376     -0.474414546416
 C        -0.245652819503     -0.055762413192     -0.060107167531
 N        -1.520335798051     -0.495908381740     -0.421086431213
 C        -1.839585117288     -1.601477312429     -1.206759725221
 C        -3.203583940047     -1.635581572460     -1.241959676132
 N        -3.742769542401     -0.604153255576     -0.490242395750
 C        -2.726951604513      0.062101367607     -0.020078012340
 C         0.708755223616     -0.912834122218      0.518184798480
 N         0.371494534534     -2.308952955790      0.863572918944
 O        -0.714545953757     -2.508764221192      1.391255943829
 O         1.231577967709     -3.151963784874      0.623880219087
 C         1.986975464796     -0.490038882918      0.853243481266
 H         1.654661503239      2.798057401610      0.024756824211
 H        -1.074362126855     -2.208830780720     -1.664990148915
 H        -3.836753127347     -2.335527533642     -1.768129894898
 H        -2.762391250877      0.926313644168      0.629521736968
 H         2.708833894707     -1.181960925006      1.267040868697
