14
0141
 N        -1.643547944827     -1.282727472602     -0.019857502672
 C        -0.794062373427     -0.220277559987      0.022062160693
 C         0.591556235650     -0.191416851255     -0.083440364458
 N         1.605655988871     -1.086859972771     -0.203401196617
 N         2.815577295286     -0.422507602447     -0.254750695488
 N         2.604866606373      0.840492910518     -0.155769711533
 C         1.243698351827      1.048917058434     -0.047515568353
 N         0.610753433611      2.225609859220      0.060347589543
 N        -0.680214843504      2.231158291702      0.135219468033
 N        -1.382233953887      1.022940522641      0.115928785321
 O        -2.643461338764      1.084468315813      0.195840719133
 H        -2.597202943237     -1.001749352959      0.201053370785
 H        -1.327481256309     -2.160240857854      0.369476075887
 H         1.596096742338     -2.087807288454     -0.335293130273
