30
0144
 C        -6.745750352428     -0.731602563881     -2.940927334956
 N        -5.630525471948     -0.927000069582     -3.663714676162
 N        -4.480722635961     -0.774291211917     -3.047773841093
 C        -4.533267330262     -0.433824957295     -1.740610677292
 N        -3.302921493993     -0.287956967197     -1.148930567876
 C        -3.004044665714      0.047054788272      0.146127728934
 N        -3.828161808795      0.309290312593      1.133125053931
 O        -2.974914937743      0.584072220879      2.210709521148
 N        -1.668242620339      0.491691609491      1.888680515795
 C        -1.649544966848      0.160183611273      0.615113561707
 N        -0.569220710350     -0.065637604714     -0.225458303071
 N         0.569213516164      0.065636036697      0.307777788448
 C         1.649537730841     -0.160185811214     -0.532793989481
 N         1.668235223551     -0.491693894316     -1.806360933290
 O         2.974907431030     -0.584076232402     -2.128389695969
 N         3.828154475781     -0.309295399852     -1.050805060787
 C         3.004037494951     -0.047058531882     -0.063807960072
 N         3.302914725022      0.287953553826      1.231250197081
 C         4.533260856429      0.433818399657      1.822930629688
 N         5.644036046310      0.237163686642      1.095220304621
 N         6.792887799561      0.395082199363      1.731174304964
 C         6.745744407075      0.731588520792      3.023248165404
 N         5.630519970824      0.926993566004      3.746034087123
 N         4.480716846112      0.774288560851      3.130092786922
 N        -5.644042933483     -0.237176621888     -1.012899248079
 N        -6.792894407949     -0.395099233471     -1.648852746974
 H        -7.692073865174     -0.858851409106     -3.453880693731
 H        -2.505092947693     -0.451172861438     -1.756047643334
 H         2.505086436771      0.451172530241      1.838366806664
 H         7.692068188260      0.858833773574      3.536201919735
