12
0146
 N         1.897963972735      0.075036430744      0.235412582053
 C         0.566235578111      0.024871024815      0.075689750463
 N        -0.136418400453     -1.071572424754      0.494199888103
 O         0.509087341844     -2.035029919993      0.977179447431
 N        -1.476423220343     -1.119394104481      0.391291528886
 C        -2.023889911636     -0.034484849324     -0.151125655971
 N        -1.439195728441      1.070650315238     -0.606947194553
 N        -0.099857637145      1.079245953254     -0.486159382078
 O         0.578648497796      2.057150498142     -0.888067363845
 H         2.377820016080      0.808460669413     -0.268642426621
 H         2.350484381853     -0.799641019299      0.464342621175
 H        -3.104454890402     -0.055292573755     -0.237073795042
