22
0151
 O         5.043627706277      1.485058627698      1.286451516803
 N         4.368341877411      1.227391728340      0.304959145990
 O         4.726895825675      0.918825147990     -0.813263919475
 N         2.966119714999      1.359500885363      0.524215427084
 C         2.043027908759      0.761152282253     -0.306605874091
 N         0.988651173794      0.117506894618      0.102813923649
 C         0.347762638833     -0.127975145084     -1.090215816811
 C        -0.909162586266     -0.853840522794     -1.150439911948
 C        -2.007469717613     -0.894937559178     -0.245455689176
 C        -2.234844671096     -0.094471482880      0.944684243140
 N        -1.656856238966      1.045683527605      1.279101498258
 N        -2.237514784608      1.428089407832      2.447595777265
 N        -3.136991524603      0.575073594080      2.827485905070
 N        -3.151288423433     -0.393426429827      1.891550890088
 N        -2.917995142737     -1.759577026516     -0.630032831144
 O        -2.484971983949     -2.327180966780     -1.780878186109
 N        -1.180791847957     -1.727602502491     -2.129572344163
 O        -0.625807913969     -2.103023406847     -3.133873137872
 N         0.973127917603      0.300822205930     -2.164812015731
 O         2.118158006013      0.919893433553     -1.634538133374
 H         2.756796778902      1.319949660276      1.516584381520
 H        -3.788814713069     -1.176912353141      1.954045151026
