20
0157
 C        -3.101431841409     -0.619819785768     -0.571830992950
 O        -2.151895868619      0.423174943777     -0.354759569584
 C        -0.860579904560      0.107264718937     -0.205335154389
 C        -0.368086534536     -1.210715111004     -0.246143910076
 C         0.989064523230     -1.470433727604     -0.122035574201
 C         1.879489030365     -0.410015627980      0.029094683750
 N         3.311768349455     -0.683944750845      0.152893660048
 O         4.066086442672      0.277307450056      0.293033608517
 O         3.669281019143     -1.861465285871      0.108670974408
 C         1.435669296210      0.905286071703      0.062372822218
 C         0.076267987313      1.157351997144     -0.037438072739
 N        -0.343486536195      2.563567731324      0.046884670793
 O         0.465794906901      3.405863023065     -0.342555842048
 O        -1.447329506518      2.809306434541      0.521750067591
 H        -3.130650846437     -1.308288414298      0.280044156642
 H        -4.062173420518     -0.115195329808     -0.668501919957
 H        -2.878054235644     -1.172204501732     -1.491646269727
 H        -1.052675181151     -2.038273051854     -0.377425291891
 H         1.369880278537     -2.483694285335     -0.146412276019
 H         2.133362041762      1.725127501554      0.165540229614
