31
0164
 C         2.969765391859      0.289501365722      1.349946383295
 N         2.425152255667      1.057503331163      0.240643146755
 C         3.213926693594      2.214068876063     -0.179615811609
 C         1.198223672545      0.841972559043     -0.266981036024
 N         0.700376671231      1.868427264651     -0.982397295343
 N        -0.574544243224      1.816946856250     -1.382146811571
 O        -0.987169665585      2.748945829546     -2.089431249942
 C        -1.437042157834      0.853251347780     -0.889844410104
 N        -2.852581925547      1.196389561491     -0.947940735347
 O        -3.362443436194      1.426520975921     -2.037347229748
 O        -3.442381936536      1.211651381547      0.136987778150
 C        -0.959733817041     -0.295655597100     -0.229252298994
 N        -1.796416694251     -1.271185565859      0.194091870692
 C        -1.519816191727     -2.052103342134      1.392398406786
 C        -3.058220171666     -1.597390443589     -0.459676597132
 C         0.459987056279     -0.379699534938     -0.076650354666
 N         1.132253947093     -1.638147320804     -0.273133652236
 O         0.463740261015     -2.678693788856     -0.324767204685
 O         2.358040908901     -1.620011268631     -0.460317902726
 H         3.751614481017     -0.396368806156      1.015602930449
 H         3.380245052507      0.994740118050      2.081200721240
 H         2.177549822788     -0.288366638251      1.827593507254
 H         2.959098564192      2.486649860170     -1.201998284271
 H         4.271808765185      1.945266891975     -0.119477963155
 H         3.023238884470      3.077146756913      0.469814992272
 H        -2.395585703072     -1.983405954240      2.049433921054
 H        -1.318422555768     -3.097524369202      1.148420474244
 H        -0.657049507316     -1.638224768487      1.914260397925
 H        -3.916616593980     -1.215583231519      0.103418659695
 H        -3.126226453062     -2.687536117169     -0.532817128171
 H        -3.080971375540     -1.189186229350     -1.470117224088
