16
0170
 N         3.971662392559     -1.765720669342      0.138472251665
 N         2.923778475211     -1.335144028563      0.278035668564
 N         1.774244017135     -0.964043160561      0.535141054010
 C         1.255334761107      0.130318794738     -0.309870177606
 C        -0.182623730101      0.408726583185      0.121965754820
 C        -1.106780564226     -0.792152018287     -0.114537080159
 O        -2.440049655414     -0.511403335572      0.279603406662
 N        -0.611735580026      1.576564253414     -0.671964937865
 N        -1.647058276665      2.140843994740     -0.296554580391
 N        -2.560905603458      2.778399661415     -0.055072173938
 H         1.854742258314      1.039920453465     -0.186002548844
 H         1.274766820346     -0.146905361723     -1.372435327821
 H        -0.183456163093      0.656211969965      1.194436609373
 H        -0.696878854413     -1.672374661551      0.398165551509
 H        -1.144613125187     -1.004283329728     -1.187625014626
 H        -2.480327172091     -0.538959145595      1.248141544647
