37
0173
 N         6.740410373388      3.611602308608      1.703780915530
 N         5.961894420447      2.921019258629      1.235904314990
 N         5.019591971600      2.253316766313      0.797258776901
 C         5.393566630384      1.121145536120     -0.069998728808
 C         4.123132089781      0.336129737609     -0.389230562904
 C         3.071590360117      1.220514443858     -1.064703223258
 O         1.952823477493      0.429481981182     -1.510968976738
 C         1.052583399506      0.073458030825     -0.565840521095
 O         1.115231361502      0.402916912171      0.595581384177
 C        -0.003000520261     -0.832185751113     -1.171656331041
 C        -1.162769569836     -1.020797192005     -0.218639230015
 O        -1.413500503555     -2.036559760940      0.386417736488
 O        -1.888188498887      0.116255160060     -0.135309520363
 C        -2.976575976449      0.097089085348      0.801684304057
 C        -4.191350478433     -0.643677286902      0.243679274666
 C        -5.370586990556     -0.605513213813      1.234399978992
 N        -5.026478208609     -1.202811490863      2.538263171755
 N        -5.022432854009     -2.441657582870      2.566696090359
 N        -4.995312615295     -3.570033562183      2.730704852807
 N        -4.635053050640     -0.138031474735     -1.076142004187
 N        -4.715007445920      1.091365477634     -1.191387342267
 N        -4.820377744758      2.202024665390     -1.435059182148
 N         4.552011945198     -0.758316292793     -1.289286224934
 N         3.772765386245     -1.712953129396     -1.375595673692
 N         3.149520641634     -2.656080436985     -1.531746751980
 H         5.848090769304      1.475317896806     -1.005404371858
 H         6.112136622763      0.457270402998      0.424893761201
 H         3.701922782159     -0.068188693952      0.537828656515
 H         3.475005913170      1.669206372893     -1.974377104602
 H         2.734545528811      1.993951480662     -0.372975025116
 H        -0.345663950738     -0.406352149723     -2.119282118786
 H         0.453204183549     -1.805428246656     -1.377198514891
 H        -3.206862628933      1.150213033345      0.983555188704
 H        -2.660963159515     -0.372688281808      1.734615488100
 H        -3.913393380122     -1.682721926054      0.057907546226
 H        -5.645968049086      0.430948832629      1.449090924423
 H        -6.236442231448     -1.099030910288      0.778139042792
