55
0182
 O        -0.768873187324      2.943630357498     -0.116295438578
 C        -0.724203304333      1.779759830015     -0.477212309188
 C         0.273839883379      1.354185008256     -1.574056388758
 C         0.897431802760     -0.009676456098     -1.359344533491
 O         0.213649096378     -1.035502893638     -1.308532987318
 N         2.250691706392     -0.028364951751     -1.215923692587
 C         2.989192946401     -1.217161029918     -0.801008675868
 C         2.420076079947     -1.810224927888      0.520387894105
 O         2.092855623711     -0.735949868767      1.411877126292
 N         0.772892614182     -0.775680222246      1.947792883446
 O         0.107183993198     -1.771792130735      1.771016283174
 O         0.500713217796      0.236761525271      2.543187026897
 C         2.876888098395     -2.341010541712     -1.848806625637
 O         3.515619566777     -1.854264146787     -3.040140430061
 N         3.465799814916     -2.781345496197     -4.126580940238
 O         3.986411353674     -2.348016352257     -5.120473581754
 O         2.929831768236     -3.847109570513     -3.914819771005
 C         4.466925816329     -0.828023117190     -0.661787366802
 O         4.512699859127      0.238095405628      0.300974372949
 N         5.840765776238      0.736396680049      0.531523535346
 O         5.853793187465      1.657691236671      1.301612944084
 O         6.741062477750      0.178356523595     -0.055754601395
 N        -1.512307731551      0.768647806715     -0.011473628725
 C        -2.698353363849      0.906287776326      0.831513912827
 C        -2.541888167696      2.084258044289      1.815284998802
 O        -3.665472182571      1.946598738737      2.717787308836
 N        -3.752953787138      2.992195562143      3.679136522381
 O        -2.887095612163      3.838486335317      3.656603252548
 O        -4.709942345976      2.870716149495      4.401594598611
 C        -2.832771726421     -0.390098563299      1.655862190914
 O        -2.782856856764     -1.464133303332      0.695895278410
 N        -2.657615828775     -2.756787266945      1.287670557760
 O        -2.732539721031     -2.817884328708      2.493963995131
 O        -2.503618850835     -3.622827061499      0.466393020737
 C        -3.963002612470      1.063027183723     -0.034972208484
 O        -3.759954847530      2.242016114571     -0.831271779286
 N        -4.822982921889      2.500989622960     -1.739146318980
 O        -4.626294758373      3.479078835641     -2.413533813762
 O        -5.763355970196      1.734094112877     -1.724897601594
 H         1.010837365522      2.154976336885     -1.650707523409
 H        -0.282117659590      1.313517078483     -2.518538355976
 H         2.714336281098      0.856092035095     -1.055895876733
 H         1.522395761124     -2.390862778938      0.317482867685
 H         3.165431034070     -2.442151851151      1.011952526189
 H         3.383762586024     -3.244583631560     -1.494009151643
 H         1.827619544025     -2.561692376548     -2.041368949867
 H         4.870767947564     -0.489028866958     -1.617444936759
 H         5.050304224728     -1.683985143755     -0.311577225822
 H        -1.372888237759     -0.148632947427     -0.431805472334
 H        -1.603283422238      2.001911295215      2.365934404886
 H        -2.577798248870      3.042116301213      1.305167780344
 H        -3.774376413695     -0.421041810969      2.204932948275
 H        -1.997228610669     -0.477323010685      2.350120503101
 H        -4.091000892595      0.192558565724     -0.681887113779
 H        -4.849002164907      1.182610185078      0.593298566102
