32
0191
 O         0.721915384206      0.608510698763      1.158480958367
 C         1.272240275000     -0.177117373027      0.435801658802
 O         0.606243009387     -1.091495479161     -0.367136949151
 O        -0.807479974323     -0.970353710391     -0.196044783804
 C        -1.302988524020      0.068824488459     -0.966255974547
 O        -0.624542849090      0.768009849316     -1.670049838629
 C        -2.775933263239      0.167254486113     -0.785791229072
 C        -3.440115360517      1.163086155209     -1.515576019486
 C        -4.818933043712      1.318378490525     -1.396014543190
 C        -5.546229558176      0.483551860069     -0.549562207471
 C        -4.865718611522     -0.498853911215      0.166263481043
 N        -5.630399268382     -1.384820094210      1.061711869216
 O        -5.006683308678     -2.248235824399      1.674911609201
 O        -6.844226362839     -1.203883369000      1.136300894797
 C        -3.491323781792     -0.676720117045      0.068703149132
 C         2.740550484460     -0.336003091256      0.258337735894
 C         3.310418729398     -1.237988274984     -0.651898295909
 C         4.696911729992     -1.328415193686     -0.767563767235
 C         5.521981529945     -0.526236397137      0.017529425669
 C         4.932743096391      0.363402532176      0.913811210031
 N         5.801667479846      1.215136025317      1.745530298995
 O         5.256720742374      1.989144554302      2.528504190604
 O         7.017003450279      1.094785253487      1.601216551813
 C         3.556569013507      0.476615382447      1.050443723405
 H        -2.856878192663      1.804137775613     -2.167261405801
 H        -5.329942086830      2.090687554156     -1.961196752829
 H        -6.618510748518      0.577938434266     -0.433441492175
 H        -3.008270955126     -1.450600398319      0.649201698739
 H         2.671721121888     -1.860360464678     -1.267202116596
 H         5.136702611130     -2.025483600941     -1.473035800648
 H         6.601423730652     -0.574407408529     -0.050593895618
 H         3.123363500975      1.177611167760      1.751976616452
