50
0200
 C         3.110456456644     -1.607375868947      2.157215773014
 C         3.700217044500     -1.344728290298      0.769269462223
 C         4.570853112753     -0.086225811807      0.744610241127
 C         4.463904550689     -2.565827859390      0.249641518125
 O         2.638059659286     -1.232495324303     -0.206982222544
 O         1.779615083460     -0.123049583083      0.227395343450
 C         1.279395370597      0.455277194807     -0.935166929128
 N         0.275886959514     -0.473588837665     -1.529162047516
 N        -0.383144715028     -0.006611029058     -2.457849764074
 N        -1.057482264080      0.321973238963     -3.319493288483
 C         0.741657460286      1.831300760298     -0.582402031482
 C         1.434152556151      2.904602215397     -1.153226525971
 C         1.061543279516      4.227491310414     -0.924016997898
 C        -0.031487546170      4.492998249958     -0.106838184561
 C        -0.731452369459      3.432400481977      0.465301262029
 C        -0.371219799639      2.098565193321      0.246191895681
 C        -1.265572461396      1.068639832471      0.929634160522
 N        -0.536253191992      0.168595999137      1.847722991165
 N        -0.477879030871     -1.021772968734      1.540331004439
 N        -0.358814593493     -2.143339023693      1.380997927896
 O        -2.002448058326      0.425978306825     -0.073991777439
 O        -3.155506379038     -0.170200569004      0.629723239967
 C        -3.867731911006     -0.993622818726     -0.323550579567
 C        -5.056844913762     -1.464054231961      0.520823318175
 C        -4.331532177991     -0.144911298446     -1.509959455254
 C        -3.002042463302     -2.176236014796     -0.762197061560
 H         2.539128550303     -0.743643002397      2.506962886326
 H         2.442903479158     -2.473221378844      2.124294682245
 H         3.913054222806     -1.805669183931      2.875848295958
 H         3.985769418729      0.789952823265      1.035791263264
 H         4.974095493255      0.078522877575     -0.260454622764
 H         5.409872852839     -0.188340755538      1.441104443111
 H         3.816535596962     -3.447460524048      0.237245217695
 H         4.835051145113     -2.388858413909     -0.764731250644
 H         5.318975896444     -2.767692884296      0.902588583399
 H         2.099891649492      0.561720842812     -1.654550209826
 H         2.286228632106      2.694982625008     -1.793665354710
 H         1.621646086736      5.036637488716     -1.382715715743
 H        -0.342317831472      5.514999126280      0.087755812723
 H        -1.584798567421      3.643052231540      1.103343415993
 H        -1.964471660594      1.609054609592      1.575322457281
 H        -5.662001721389     -0.613592754116      0.849336762529
 H        -5.686031599757     -2.130177688825     -0.077833521154
 H        -4.711276655689     -2.012373358325      1.402507256538
 H        -4.899385703982      0.721591581186     -1.155820338833
 H        -4.976604151106     -0.739880206854     -2.165336983659
 H        -3.481667188384      0.210773711066     -2.096895794172
 H        -2.093816844917     -1.835144635152     -1.262342393224
 H        -2.704597582455     -2.775343083286      0.102957882421
 H        -3.562513174623     -2.813473301175     -1.454734047087
