66
0201
 C        -6.723714926373      2.444839808993     -0.271423969800
 C        -6.621264542749      0.923001408083     -0.138199591702
 C        -7.570815707845      0.396287304671      0.941231282342
 C        -6.852711396504      0.229461010317     -1.482612873000
 O        -5.250014275076      0.759265872989      0.292668627110
 O        -5.024535945693     -0.677181723382      0.498004847329
 C        -3.627671273206     -0.922963692524      0.255315964479
 N        -3.531886492589     -2.379454592157      0.504808194797
 N        -3.729810239598     -2.726609728821      1.679361734921
 N        -3.883385406113     -3.183863066494      2.711516296584
 C        -2.743154539095     -0.119580818526      1.209932339041
 C        -1.260244057587     -0.527475416751      1.089787493173
 C        -0.858544469969     -0.924555397008     -0.354631281942
 C         0.641333763552     -0.727084376721     -0.659486664453
 C         1.529530018486     -1.521460628415      0.312416287937
 C         3.018718365763     -1.401970192555     -0.027471527103
 C         3.459551164422      0.060468141015     -0.085477892296
 N         3.362902885807      0.573730439561      1.319919999719
 N         3.481439374645      1.794136895222      1.447071353574
 N         3.583743529530      2.907844754135      1.678614482495
 O         4.763504658978      0.231925435878     -0.604363320229
 O         5.664299159781     -0.685818265413      0.102251407169
 C         6.912165787970      0.001388974844      0.347855544551
 C         6.705250513969      1.198337787465      1.276486495885
 C         7.551808930936      0.415511599270     -0.979797441033
 C         7.726824409117     -1.097439458765      1.037771772775
 C         2.578505074153      0.868662425241     -1.049540558931
 C         1.089649517332      0.744031223464     -0.702984158702
 C        -1.776234156546     -0.216724021268     -1.362536001024
 C        -3.237244448831     -0.680816757207     -1.211409061789
 H        -6.005998581543      2.817725964274     -1.008963406579
 H        -7.731702137160      2.718675652509     -0.598761400726
 H        -6.524613673188      2.931510091709      0.688166660735
 H        -7.354588105609      0.875686898433      1.901122143467
 H        -8.610174517124      0.610143139699      0.669604366667
 H        -7.459841609701     -0.684171756787      1.061090519247
 H        -7.888562812755      0.372262704536     -1.808434450720
 H        -6.191460062350      0.644872672076     -2.250285723174
 H        -6.659310420359     -0.842331780642     -1.397874612695
 H        -3.107165095852     -0.245688026956      2.235330487024
 H        -2.878181331916      0.936345946607      0.959765936424
 H        -1.050354334388     -1.362938435327      1.765497274624
 H        -0.648073640986      0.309938582282      1.442274786462
 H        -1.051697680872     -2.001149350920     -0.458615409416
 H         0.809971599677     -1.139371676746     -1.667869350296
 H         1.237599154117     -2.579056215410      0.300898122948
 H         1.372752415487     -1.160389050846      1.335385383854
 H         3.227564796434     -1.839406039537     -1.010717557370
 H         3.632244294971     -1.928242358342      0.706355914680
 H         7.672134230324      1.632540727704      1.552540289031
 H         6.189888720605      0.885385523570      2.189364723567
 H         6.113164928145      1.975528738088      0.788432416798
 H         8.537448002195      0.860141849158     -0.804402566472
 H         7.672144315805     -0.455493021145     -1.631757889301
 H         6.928674776779      1.151157862253     -1.494786001551
 H         8.727684363257     -0.721162387711      1.271919076624
 H         7.826184890842     -1.971114068989      0.386493165691
 H         7.244357336159     -1.407893127141      1.969670837441
 H         2.898143279090      1.917150875090     -1.045319361849
 H         2.764760102979      0.482319414155     -2.057543817244
 H         0.899973893118      1.224536362148      0.264250023306
 H         0.511702368752      1.300378406047     -1.448553270114
 H        -1.436100176825     -0.404728171584     -2.388182589944
 H        -1.720822702716      0.868926381887     -1.213085508488
 H        -3.412905053714     -1.607766223713     -1.765537431807
 H        -3.912936808343      0.079778954425     -1.606651562722
