28
0204
 N         6.510197197231     -0.471266362877      0.286385985714
 N         5.441624631071     -0.271841918814      0.598614793523
 N         4.305218157021      0.022772810395      1.030927568743
 C         3.231050281085     -0.608183204149      0.336558361042
 O         3.372562731272     -1.363417576486     -0.600137501352
 C         1.898856846532     -0.207363705116      0.926392148690
 C         0.748264419556     -0.861161782201      0.160562783433
 N        -0.566778745330     -0.453496602186      0.660103274711
 C        -1.190071910724      0.791512839475      0.281753517192
 C        -2.019385681095      0.670546197202     -1.009741049805
 N        -1.246101958775      1.074045707110     -2.283800539246
 O        -1.925418256348      1.250238399007     -3.276283185315
 O        -0.033642565292      1.177796485399     -2.180638934317
 N        -3.218794612527      1.619036001649     -0.989250188700
 O        -4.270086116009      1.234408939106     -1.453710180902
 O        -2.950875541856      2.720931664158     -0.524700002120
 N        -2.491652368107     -0.765356144114     -1.194173215514
 O        -1.949518605703     -1.411065472147     -2.075262423416
 O        -3.315684523724     -1.133670550186     -0.379841519198
 N        -0.992671402328     -1.020872110092      1.869822312073
 O        -0.298883359677     -1.930857528273      2.308179756244
 O        -2.022119946972     -0.581346129930      2.370654579148
 H         1.877791826909     -0.503148691705      1.981116589472
 H         1.827629856771      0.887552685940      0.905485420370
 H         0.779015274886     -0.585070618486     -0.892417450256
 H         0.810568872672     -1.946064886750      0.218974956408
 H        -1.864337981539      1.090129649563      1.081946612055
 H        -0.446656519000      1.575111904507      0.126477531322
