21
0219
 N         4.905496621327     -0.147937085435     -1.051796024337
 N         4.306948575506     -0.561891954650     -0.185113951728
 N         3.855456616794     -1.159874727853      0.819725588583
 C         2.547735410454     -0.943879015400      1.270621088379
 O         2.105186083055     -1.541760504657      2.218472902104
 C         1.704087139572      0.102466291848      0.513894796448
 O         2.127630201986      0.828982407024     -0.349743008680
 O         0.439988164346      0.089300575883      0.981153773917
 C        -0.499012699825      0.915608529392      0.301257585868
 C        -1.593230996510      0.024302378169     -0.276042216982
 N        -2.799385868623      0.866687356525     -0.686367850453
 O        -3.903993924735      0.408632005398     -0.477225034519
 O        -2.505167254425      1.930196225483     -1.214083597989
 N        -1.155297852336     -0.748346794475     -1.522780951673
 O        -1.990785680877     -0.894596455150     -2.394859445022
 O        -0.005869777864     -1.156704151758     -1.507695828942
 N        -2.073172031162     -0.993975242178      0.763228577297
 O        -2.104365799685     -2.161377952262      0.427924249683
 O        -2.383519989484     -0.495773132654      1.830788251679
 H        -0.024414512464      1.489334716510     -0.494637604925
 H        -0.954312425051      1.583706530238      1.033278701294
