36
0221
 O        -1.553292291617     -1.057522897139      1.451730739212
 C        -1.092293831636     -0.139400144512      0.814005200519
 C        -1.800714567802      1.208210448176      0.671614523919
 C        -3.308330181395      1.070015108233      0.905417500975
 C        -4.133516204873      0.723603150672     -0.316815839703
 N        -5.626368673364      0.589890655586      0.057586914656
 O        -5.849597264387      0.063988220913      1.132782146416
 O        -6.432147701543      1.012475979251     -0.752246014358
 N        -4.073412364915      1.804867818799     -1.409857749988
 O        -4.181963553171      1.436072176592     -2.563067178015
 O        -3.948999599503      2.949175123573     -0.998349619605
 N        -3.720626120416     -0.587753826692     -0.985610550831
 O        -4.525690165786     -1.496903027284     -0.992831781586
 O        -2.589049686426     -0.582979182510     -1.449381401056
 N         0.149979155408     -0.175212018451      0.178621483935
 C         1.043111245204     -1.229527308411      0.221610996705
 O         0.973254524749     -2.240118151460      0.863610489732
 O         2.073590212124     -0.914219565392     -0.645678811001
 C         3.170766615010     -1.806704392442     -0.630282237414
 C         4.377340907774     -1.121274226231      0.011671888650
 N         5.646715312462     -1.940832213720     -0.219995245674
 O         6.689446791740     -1.321309807435     -0.312488335196
 O         5.477089147777     -3.148603023733     -0.272046357211
 N         4.220142198929     -0.940978291645      1.520045884670
 O         5.075202683227     -1.440709422405      2.228450748958
 O         3.230732496171     -0.316555046410      1.863315931057
 N         4.634004143233      0.252497054053     -0.618048523647
 O         4.604038826730      0.247140910285     -1.838333530789
 O         4.864207119999      1.185004346002      0.125714386283
 H        -1.398964610196      1.861946525920      1.455850715544
 H        -1.569666945965      1.689696276001     -0.282423731404
 H        -3.721834306866      2.006372280065      1.284936178737
 H        -3.486912891131      0.287121719817      1.645837955576
 H         0.419899985753      0.604997502998     -0.406323409451
 H         2.930645367786     -2.716117280575     -0.077837509700
 H         3.433414226915     -2.045755470485     -1.660985858916
