22
0230
 C        -1.880265203897     -1.730611879138     -0.145498558083
 N        -1.840347900441     -0.393288474096      0.448893909378
 C        -0.703882211133      0.021433147135      1.250039974842
 N         0.522616686487      0.182595547420      0.496141452566
 N         1.290489778283     -0.914926010452      0.209290895837
 C         2.277955368394     -0.357377200588     -0.458617198395
 N         3.376590954215     -1.174719217548     -0.968262667677
 O         3.286633511232     -2.388719422546     -0.805286520499
 O         4.297437319467     -0.581107655507     -1.517284091226
 N         2.228719177157      0.980537878696     -0.653086372632
 C         1.095345294646      1.307119137285     -0.045403559710
 N         0.580571812691      2.560737145892      0.104204831966
 N        -2.494600382618      0.596467966576     -0.260230333918
 O        -3.270014225704      0.231995056053     -1.132689988424
 O        -2.281692649474      1.773604763104      0.068281129749
 H        -1.424624440165     -1.740919489397     -1.140426666381
 H        -2.913678080400     -2.069301300956     -0.214402285018
 H        -1.311854968679     -2.388779511319      0.511309658692
 H        -0.941157612018      0.959741651329      1.745318548218
 H        -0.529717641965     -0.758222461426      1.990798942604
 H         1.068339873993      3.254885850832     -0.447835237962
 H        -0.432764460071      2.628754478653      0.064744136074
