23
0234
 C        -2.654196403316      0.690953010952      0.602385755388
 N        -1.960061256775     -0.548676818883      0.249780520513
 C        -0.827661283397     -1.026129676415      0.998080455031
 N         0.424535139939     -0.338340320751      0.629471771288
 N         0.485325646644      0.983330781257      0.832663765656
 C         1.610426022649      1.366972350348      0.235434229384
 N         2.018187341108      2.760533745214      0.266132548313
 O         3.087173939696      3.013724204541     -0.288763098003
 O         1.281159662929      3.561733081673      0.827101519977
 C         2.300658113707      0.313781337105     -0.383585796751
 C         1.496681842109     -0.772433725204     -0.111163573987
 N         1.763112604358     -2.151511388669     -0.444433090681
 O         2.615625608561     -2.338498691277     -1.305016297030
 O         1.157534984158     -3.026135549317      0.175804827218
 N        -1.952483049031     -0.872745542916     -1.106611674813
 O        -2.770236035387     -0.298324680750     -1.812584380019
 O        -1.136952716717     -1.721963228202     -1.467476682548
 H        -2.172472534562      1.566822871641      0.157433739997
 H        -2.621980620660      0.778401254641      1.688835815118
 H        -3.689196054571      0.627658564602      0.269438054478
 H        -1.015444823717     -0.816545381647      2.050096852529
 H        -0.672407561252     -2.086806780713      0.836942841779
 H         3.232871433528      0.334100582769     -0.922568102835
