25
0236
 C         3.237643112455     -0.777928526131      0.298652976998
 N         2.168124970066      0.059680642234     -0.242772222259
 C         1.169981731390     -0.430904270217     -1.161710998492
 N        -0.205169619728     -0.188527637370     -0.703711973751
 N        -0.951865087645      0.671131139523     -1.373534981746
 C        -2.082506841476      0.799246123918     -0.682117290363
 N        -3.141979211921      1.644977328821     -1.143061815400
 O        -4.142031621728      1.697975907286     -0.403897325096
 O        -3.011857702529      2.243253533414     -2.200858459692
 C        -2.094061718850      0.017911284291      0.511575301068
 N        -3.054293812945     -0.099461097004      1.434158564870
 C        -0.842431369101     -0.619423035530      0.454413658609
 N        -0.373928684064     -1.618995704329      1.315006560173
 O        -1.055752038157     -1.844063301916      2.330491603057
 O         0.663555417394     -2.231495476947      1.021560149136
 N         2.432373914522      1.423052752669     -0.299437561461
 O         1.629423305818      2.115033397659     -0.921204327301
 O         3.430293477144      1.810266447497      0.299782940582
 H         3.447908552568     -0.481841801559      1.326460800381
 H         4.154144277170     -0.682929063872     -0.293014818779
 H         2.878565866621     -1.804250269874      0.292912161291
 H         1.319120296309     -1.502680558174     -1.263581130421
 H         1.221145831899      0.071601119447     -2.128290496989
 H        -2.889757418818     -0.698622561194      2.230655233415
 H        -3.906745626393      0.426793627357      1.301823452168
