38
0241
 O         0.929834139690     -2.057689216459     -1.445841421762
 C         0.330251017497     -1.556432953968     -0.526133461111
 N        -1.088705327733     -1.564674344626     -0.537391748383
 C        -1.963798761304     -1.041365779151      0.373595049640
 O        -1.683458564116     -0.477190877443      1.412673922823
 O        -3.238486789817     -1.279866275751     -0.052428133313
 C        -4.272794289753     -0.682158897218      0.714049254603
 C        -4.919841899432      0.444982375548     -0.090334565525
 N        -5.276311195812     -0.019550781746     -1.506333563950
 O        -5.847536588415     -1.097449087868     -1.540463025849
 O        -4.989187874673      0.714544488948     -2.430195506942
 N        -4.032954439717      1.684348931981     -0.202577210961
 O        -4.524768561426      2.748044821162      0.124796753211
 O        -2.904439602097      1.470951407044     -0.612963610895
 N        -6.228263235658      0.880224030993      0.568501963315
 O        -6.225503605523      0.826185895699      1.788841709490
 O        -7.121700425898      1.247649534687     -0.168935754526
 N         0.865269993600     -0.950531591684      0.600054152572
 C         2.193723711626     -0.700105699628      0.887233629880
 O         2.544451667574     -0.089772778684      1.870759476277
 O         3.041466431890     -1.214085808307     -0.035007203849
 C         4.413877140774     -0.949968613277      0.199314227093
 C         4.819561075862      0.495224877184     -0.129011564228
 N         6.312004558855      0.575344857559     -0.530793052930
 O         6.788228135174      1.694868230060     -0.516523792861
 O         6.865422489371     -0.468693137826     -0.828464772824
 N         4.020771293139      1.033763077039     -1.308934960755
 O         2.854058471330      1.297938106851     -1.083507502858
 O         4.609871788563      1.093855378121     -2.376414919873
 N         4.739340576172      1.442192929754      1.085840833009
 O         5.365670595335      1.021950567502      2.045592542761
 O         4.151830673314      2.494138774345      0.969757578034
 H        -1.472909514309     -1.988193681176     -1.373638791405
 H        -5.033021711004     -1.441105239587      0.898150860503
 H        -3.890306377015     -0.289158934117      1.655950557280
 H         0.209459690436     -0.551792935029      1.272561070460
 H         4.702428112779     -1.145193450181      1.233753397802
 H         4.956467200722     -1.601128200757     -0.482532413955
