49
0242
 O        -3.152837396881     -1.558432285851      1.472643381079
 C        -3.061395459653     -0.496509710377      0.899213830101
 N        -3.890832430705     -0.037062793281     -0.081880482631
 C        -4.956510392701     -0.860440080035     -0.582031969998
 C        -6.322988575756     -0.210254798282     -0.354064930649
 N        -6.431952741653      0.311845513645      1.076564590586
 O        -6.241882798001     -0.534398076470      1.930758410605
 O        -6.660992779969      1.499543095014      1.222027873020
 N        -7.460527581354     -1.194109136748     -0.606494445495
 O        -7.313961445771     -1.862779117202     -1.620602540599
 O        -8.385608711415     -1.210876160085      0.179919045726
 N        -6.576450323717      0.971595419932     -1.297334641909
 O        -7.735439185936      1.222013600966     -1.561231999317
 O        -5.577142066755      1.562153133958     -1.685681014221
 O        -2.099928859934      0.448738322233      1.150937691365
 C        -1.116119172890      0.083529152872      2.117848974246
 C         0.148873860106     -0.408392578753      1.393917191403
 C         0.671303467645      0.630335997038      0.399724112678
 O         1.811717835255      0.173311865492     -0.308322640219
 C         3.014053836498      0.598587112189      0.186435857779
 O         3.148522010949      1.392058520087      1.093166781825
 N         4.020098119966      0.006173851391     -0.519333062648
 C         5.390623583399      0.215063238712     -0.144598879493
 C         6.192809410069      0.845593152613     -1.285178918867
 N         5.422456919666      2.014805413501     -1.893442931873
 O         5.112450528842      2.877359045749     -1.091931584296
 O         5.171262566426      1.960552817198     -3.084176495966
 N         6.492917611685     -0.147528908838     -2.413898861007
 O         5.690488849864     -1.062026060466     -2.541544759515
 O         7.484617390057      0.069176779734     -3.082132821510
 N         7.549585646072      1.348281388209     -0.804466831228
 O         7.924400194047      2.437998566152     -1.188026527642
 O         8.134831906538      0.558220071118     -0.076159458415
 N         1.226112215037     -0.740505659486      2.420635278385
 O         2.171999184507     -1.406210606729      2.029283662307
 O         1.072102450670     -0.276500997088      3.542036861294
 N        -0.196688397104     -1.726601086297      0.690042492237
 O        -0.191729605739     -2.730837802986      1.378223054933
 O        -0.524211085055     -1.638812218870     -0.486804301636
 H        -3.674647595740      0.829505492309     -0.553628602809
 H        -4.935951227373     -1.802885618855     -0.031456214117
 H        -4.860002260260     -1.070974366647     -1.649508006860
 H        -0.874373367831      0.980843417505      2.684981330799
 H        -1.494000133492     -0.694723146158      2.781502372981
 H         0.906699069846      1.545909497488      0.947291846372
 H        -0.112683768481      0.810841248180     -0.332527841791
 H         3.793219458589     -0.735728321694     -1.166734279424
 H         5.893393839219     -0.709518143907      0.147748757231
 H         5.404217409217      0.908271961819      0.698591647180
