32
0246
 N         1.211294042929      1.557669462184     -1.971789339239
 C         1.909170745124      1.321520680010     -0.824852279522
 N         2.731814933286      2.158451674591     -0.205318046692
 C         3.201172181658      1.403673864911      0.813010532671
 N         4.156549256871      1.927839112982      1.789282823230
 O         4.394413054308      1.221888183692      2.764965795117
 O         4.639673189892      3.027764405502      1.549601874895
 N         2.763204342663      0.167285503170      0.913074893345
 N         1.919344884973      0.108467475948     -0.167098887091
 C         1.360037651205     -1.152344970635     -0.558983589427
 N         0.393357214085     -1.620315153755      0.459492350612
 C        -0.481789795664     -0.708251573876      1.161308643759
 N        -1.603691194223     -0.272191555368      0.349770365226
 N        -1.379246844476      0.601472967764     -0.674742282536
 C        -2.592119277135      0.734292269164     -1.168602655687
 N        -2.801065699862      1.609570518560     -2.316154988742
 O        -1.784791401347      2.059343868481     -2.852651972994
 O        -3.953411279219      1.826523375486     -2.655005679647
 N        -3.580437014507      0.025207649584     -0.590063441356
 C        -2.927883692296     -0.630659047195      0.366957816228
 N        -3.461956765994     -1.485635712703      1.282228840049
 N        -0.086320100253     -2.900996776725      0.260024385095
 O        -1.055568964384     -3.252732212551      0.941679633101
 O         0.501860654444     -3.593025962395     -0.560227819762
 H         0.220571795460      1.319023491442     -1.942989736464
 H         1.356834763549      2.503120686164     -2.307703567916
 H         2.145860226539     -1.902547046433     -0.625849665791
 H         0.883979011012     -1.028663997313     -1.535001384735
 H        -0.860897094932     -1.186999234907      2.060054949270
 H         0.112726777869      0.161360581293      1.434078377455
 H        -4.436190026631     -1.695496787385      1.101951776303
 H        -2.896395574942     -2.304515739685      1.485452281244
