30
0253
 O        -5.793286192383      1.118132115200      1.840480603595
 N        -4.636000584135      1.438020557102      1.663537690063
 O        -3.874501435646      2.011277478127      2.421518325725
 C        -4.059495303323      1.113577156911      0.268808307937
 C        -2.577415536291      0.985761309347      0.255547004979
 N        -1.877009221863     -0.084667321173      0.062787245931
 C        -0.594025178900      0.415992398813      0.121698211040
 C         0.594027557410     -0.415973947747     -0.039357448740
 N         0.515711558777     -1.712310820916     -0.251295682338
 O         1.847364011647     -2.100172989669     -0.341813953292
 C         2.577417550628     -0.985742553424     -0.173208801902
 C         4.059496320795     -1.113565539151     -0.186481961132
 N         4.635986347579     -1.437995354910     -1.581220657916
 O         3.874459715988     -2.011184889752     -2.339224558365
 O         5.793288371335     -1.118157726380     -1.758149328006
 N         4.721526818876      0.201194308965      0.270332935421
 O         4.560679207606      1.123322044932     -0.503234223418
 O         5.326570232990      0.174194954999      1.322868164980
 N         4.496485979143     -2.242028198404      0.777695504320
 O         5.414884945374     -2.949922988783      0.420081066975
 O         3.864159778697     -2.271276867325      1.817225393644
 N         1.877011897560      0.084687186285      0.019545037030
 N        -0.515709397481      1.712327694570      0.333646617737
 O        -1.847362029568      2.100189970252      0.424163235458
 N        -4.721512272630     -0.201189882250     -0.188005597608
 O        -4.560658947179     -1.123315548296      0.585562529176
 O        -5.326552259109     -0.174196669349     -1.240543197629
 N        -4.496487981193      2.242029642004     -0.695380157022
 O        -5.414916872736      2.949897090804     -0.337788013742
 O        -3.864137081968      2.271297389219     -1.734894292903
