24
0260
 O        -4.740907803263     -1.032415347947      2.604480380257
 N        -4.157988607847     -1.053235907516      1.551214594024
 O        -4.578501868276     -1.196786128009      0.422604083753
 O        -2.753568056412     -0.871899111540      1.700973484804
 C        -2.035540500074     -0.907586037342      0.455354490764
 C        -0.569912189542     -0.724727888141      0.856496376943
 N         0.300030690129     -0.655448581713     -0.307423262620
 C         0.616134208170      0.587900259406     -0.996919809523
 C         2.051241005145      1.027273601077     -0.703922044853
 O         2.182571090769      2.289436668487     -1.382433888036
 N         3.476453598869      2.868044608656     -1.257829542150
 O         4.293469655201      2.257618880577     -0.601175896294
 O         3.571000857264      3.917761512010     -1.840376538958
 N         0.645008204267     -1.836903262693     -0.928146785358
 O         1.356278698118     -1.747916974936     -1.928618657302
 O         0.223837242796     -2.876090814840     -0.421009047824
 H        -2.376787176602     -0.099448360688     -0.199169988085
 H        -2.183499807101     -1.866157261437     -0.045506322268
 H        -0.247904663653     -1.549248228267      1.492790034343
 H        -0.441300782879      0.208661752498      1.409782471535
 H         0.475509794999      0.458490305651     -2.071570752340
 H        -0.088682747542      1.344542693814     -0.643597476865
 H         2.765566429184      0.302546233464     -1.098221203922
 H         2.217692728281      1.155787389430      0.369725299976
