16
0263
 O        -2.347229658310     -0.642138081343     -2.139417866821
 N        -1.248307497590     -0.716319428317     -1.628897305734
 O        -0.256776162966     -1.624120622960     -2.220900933489
 N         0.889885291117     -1.546573574257     -1.495696434982
 C         0.682046751485     -0.685676020715     -0.523863561173
 C         1.692156148273     -0.336856699649      0.469821865854
 N         2.800250695263     -0.977853691401      0.524944753346
 O         3.611152219847     -0.470850748803      1.529725282648
 C        -0.642692048932     -0.146082326494     -0.578200036194
 C        -1.276346439823      0.814699820778      0.293003791741
 N        -2.483386510642      1.210803037665      0.099012562538
 O        -2.849883227163      2.129752319723      1.076572551312
 H         1.483630101691      0.480155448469      1.161495702902
 H         4.399925481892     -1.034392021167      1.473177367021
 H        -0.692164961426      1.196004761942      1.131449865685
 H        -3.762260182718      2.349447826531      0.827872395345
