23
0265
 C         0.055932317841     -0.652681104555     -1.608590794323
 C         0.091194496339     -0.525097181782     -0.076391374772
 C         0.791757467320     -1.744990949245      0.549179869005
 C         0.798986943177      0.772091629449      0.346028348959
 O         2.155440254588      0.672624507725     -0.138608814247
 N         2.952584440097      1.803818367765      0.157958324007
 O         4.077683365405      1.702563889614     -0.265209169505
 O         2.432128157147      2.706442724698      0.781184127903
 C        -1.333430677683     -0.487172489061      0.493137938762
 O        -1.991676593918      0.670618529322     -0.067275444361
 N        -3.342359505928      0.815362134574      0.338925960531
 O        -3.868870610972      1.788869265119     -0.138615357998
 O        -3.790627178169     -0.026237462849      1.090420535590
 H        -0.462997973356      0.194997340708     -2.065287622469
 H         1.071123898161     -0.694810333361     -2.011558468310
 H        -0.466279530947     -1.570191165048     -1.901424348930
 H         0.265609556570     -2.668675192809      0.285446631448
 H         0.825480192641     -1.670774282901      1.642447322175
 H         1.818444477832     -1.822064301675      0.183376615880
 H         0.812661109794      0.880219723039      1.435530843060
 H         0.320265932210      1.651425855123     -0.089764958408
 H        -1.331211645964     -0.406207913623      1.584776499494
 H        -1.881838892185     -1.390131590224      0.210613336508
