27
0267
 O        -4.140350128408     -0.596474376967      1.490511752142
 N        -3.112126716908     -1.199853752047      1.305171398636
 O        -2.828669103144     -2.353149331974      1.556479896629
 O        -2.114792754058     -0.401325164111      0.696945120718
 C        -0.865734639632     -1.092749801673      0.472113867868
 C         0.077895157163     -0.062199028847     -0.155386095845
 C         1.361914223860     -0.779202493098     -0.576023942012
 O         1.902722439092     -1.416647804664      0.604171585750
 N         3.135575505141     -2.080855066266      0.383881761738
 O         3.594899297195     -2.043775719953     -0.739551299814
 O         3.565716233477     -2.605605951842      1.380355317325
 C         0.378290822542      1.122232827770      0.814064730134
 C         0.294662935956      2.388237123788     -0.052517165104
 C        -0.831184433326      2.058150789185     -1.041667184691
 C        -0.542010105272      0.599352138056     -1.432345003291
 H        -0.481522057907     -1.469372977727      1.422315752138
 H        -1.040484740860     -1.939768386413     -0.199315061726
 H         2.089723896242     -0.063602441056     -0.968059328834
 H         1.171439135473     -1.539327939687     -1.340548590692
 H         1.340398170807      0.998193185305      1.319634384285
 H        -0.393289181490      1.158941821293      1.589563651577
 H         1.236702689154      2.542907333633     -0.595957574595
 H         0.106765203925      3.291127107363      0.536669593428
 H        -1.800342405992      2.119294507087     -0.533725222222
 H        -0.862441646191      2.727007893412     -1.907453814797
 H        -1.431165676881      0.064810415959     -1.777521871396
 H         0.187507880044      0.573755093474     -2.252106657350
