10
0271
 N        -1.142455281748     -0.859471013042      0.750826968486
 C        -0.138312048789     -0.539025653620     -0.122386012720
 N         0.362993037028     -1.266247091868     -1.105948896199
 N         1.290757239802     -0.466553195568     -1.724311600510
 N         1.389280332573      0.690067728787     -1.164570873520
 N         0.468052585172      0.667735137252     -0.162140292855
 O         0.335359654824      1.669843314810      0.762842635868
 H        -1.321346439821     -1.854716475631      0.799206652999
 H        -1.077362982217     -0.414382687865      1.658508055217
 H        -0.166966096824      2.372449936746      0.307973363233
