15
0279
 N        -2.978563782532      0.713947733707     -0.013274371010
 C        -1.764740358911      0.067817316868     -0.064873494697
 N        -0.572894135041      0.627644382732      0.070015427675
 C         0.275452866539     -0.453104084765      0.021170976674
 C         1.708764898138     -0.257563858112      0.137682764067
 N         2.697248503327     -1.136229054276      0.095469288975
 N         3.840562369385     -0.415639899213      0.256534366559
 N         3.589432426591      0.850017095538      0.393035278619
 N         2.248716020922      0.966985406043      0.320019255846
 N        -0.302879692270     -1.630556356165     -0.142132662334
 N        -1.622175295673     -1.276942110087     -0.195153513249
 H        -3.694718114798      0.362217898934     -0.637215616601
 H        -2.877360287503      1.719855031255     -0.073849702360
 H         1.779523312944      1.859159761722      0.398196994023
 H        -2.326468731116     -1.997609264181     -0.255124992187
