38
0285
 C         1.568678332948     -2.980595410271     -0.998272123586
 N         1.311933412658     -1.698610287667     -0.347081832354
 N         0.055168516285     -1.245276301707     -0.130082898327
 N        -0.843564947703     -2.085001442764     -0.370843948265
 N        -2.125546822527     -1.541205380535     -0.192334734856
 C        -3.060232451187     -2.548974090474      0.319487732669
 C        -2.201529735153     -0.269771505511      0.391655759789
 N        -2.365676415547      0.034550808073      1.666732809747
 N        -2.355420952689      1.393245132499      1.724769432918
 N        -2.183246865264      1.909623009455      0.544716047642
 N        -2.095940359972      0.876040877353     -0.319184146377
 C        -1.867226818628      1.077046112423     -1.741667103631
 C        -0.448883344414      1.590809500495     -2.032210708274
 O        -0.244888579425      1.703930558217     -3.427572986536
 C         2.325208869472     -0.782670713164     -0.139470753633
 N         3.497746804928     -0.829640864681     -0.756787017608
 N         4.213465501449      0.211628514770     -0.269347201926
 N         3.532061112922      0.877674637637      0.598797884331
 N         2.314922688003      0.264922822804      0.719041386018
 C         1.370301148732      0.749721789186      1.738075423446
 C         1.164958181835      2.263727258387      1.635819879179
 O         2.285378948476      3.004097045562      2.063418128511
 H         1.039314839596     -3.018547310704     -1.955532804315
 H         2.641899640363     -3.060454298431     -1.157876243637
 H         1.206817613359     -3.794479970658     -0.363935394739
 H        -2.888455095615     -2.766988909455      1.379408122890
 H        -4.077239593621     -2.176017885525      0.185614180346
 H        -2.922656245471     -3.455241120864     -0.272507026682
 H        -2.615895384066      1.787644224358     -2.103960206132
 H        -2.026535421362      0.115118426543     -2.232831131497
 H         0.281124728504      0.868082423008     -1.661312573268
 H        -0.283683908137      2.538958274343     -1.503465343150
 H        -0.664291011731      2.523631212396     -3.730551265750
 H         1.784804129790      0.503103232788      2.720139331172
 H         0.432708859351      0.217682066886      1.598318513172
 H         0.330480904044      2.531466895051      2.289828862581
 H         0.867263744282      2.514156176341      0.604948916549
 H         3.046375975513      2.696714493835      1.538155033584
