14
0290
 N        -2.486118371048      1.730292304297      1.072825401079
 N        -3.191827818294      1.257057192003      0.108317896104
 N        -2.360380326086      0.424236482762     -0.585782884637
 C        -1.149717128860      0.440034359663      0.021895904497
 N        -0.082674703421     -0.302852407170     -0.439163999033
 C         1.176918689000     -0.340411248552      0.122130018091
 N         1.627962201477      0.298062136386      1.181744805345
 N         2.934646992728     -0.087602382858      1.306049688963
 N         3.284821091684     -0.916083375147      0.387764019299
 N         2.176509784638     -1.097707919809     -0.390265215262
 N        -1.205711881686      1.248630580357      1.059638228854
 H        -2.703711820779     -0.066932434028     -1.399003745044
 H        -0.237217379488     -0.868923613104     -1.259475541806
 H         2.216500670136     -1.717599674801     -1.186874576448
