20
0291
 C        -4.693370068247      0.026557215863     -0.494479870973
 N        -3.287171769118     -0.068888280247     -0.159647868079
 N        -2.855615272844     -0.495822324795      1.016524189105
 N        -1.540298985691     -0.453673161284      0.973824873282
 C        -1.234786778784      0.011200809808     -0.263296923762
 N         0.027555410828      0.222516553201     -0.766543937063
 C         1.240199948698      0.024884988947     -0.148600384211
 N         1.435098801760     -0.437187522557      1.111725169521
 N         2.741222436523     -0.465214208779      1.275771240270
 N         3.274957041779     -0.032448830317      0.144516835266
 C         4.704947852822      0.078998498922     -0.058759325987
 N         2.379280992959      0.292750362452     -0.793971163893
 N        -2.312183807244      0.266719393220     -1.011419746887
 H        -5.254127131999     -0.308066963345      0.377807577513
 H        -4.911549394038     -0.611495175302     -1.354243358669
 H        -4.945619259378      1.062372667685     -0.733995940156
 H         0.069421668801      0.575067628952     -1.712025442824
 H         5.186291507599     -0.250041533846      0.861755869160
 H         4.966668467888      1.117758700434     -0.274150290494
 H         5.008878337687     -0.555888819011     -0.894491501117
