34
0293
 N        -6.748202548580      0.195835614662      0.964314280432
 C        -5.426496502616      0.176992843055      0.775482857667
 N        -4.595361483406      0.830594695751      1.644697570370
 O        -5.114257527369      1.442456430817      2.608701217343
 N        -3.262350029607      0.787223940927      1.494648341379
 C        -2.855527466015      0.140472621841      0.408077390729
 N        -1.456716555949      0.120618609007      0.208169217852
 C        -0.671607347590      1.271907842066      0.256276525220
 N        -1.058724406249      2.495608398061      0.469974829973
 O         0.100966069065      3.248261047134      0.393830088783
 N         1.211414031909      2.465885103575      0.125578140537
 C         0.746196502964      1.254160831515      0.034656384611
 N         1.456708084650      0.079267773889     -0.208196228921
 C         2.855519029541      0.059415107852     -0.408106824617
 N         3.519632490356     -0.823699878635      0.329111091285
 N         4.840772430356     -0.856153063669      0.094908633921
 O         5.580531805538     -1.670897948416      0.696471817310
 C         5.426486196440      0.022930987907     -0.775531162111
 N         6.748180685259      0.004148100545     -0.964449679757
 N         4.645127076933      0.921429118242     -1.450582940758
 O         5.209176388552      1.717669924881     -2.238478478924
 N         3.310892739767      0.926651835550     -1.305305018789
 C         0.674225990021     -1.074435370455     -0.237678814549
 N         1.061475280545     -2.298258576939     -0.450433775578
 O        -0.100973382608     -3.048375296773     -0.393855611026
 N        -1.214183031938     -2.263463760259     -0.145164606489
 C        -0.748832392168     -1.051861236852     -0.053304775086
 N        -3.568190015525     -0.490391771601     -0.518503411791
 N        -4.890552319846     -0.496062403862     -0.289071688426
 O        -5.675467455636     -1.089386165463     -1.066764617538
 H        -7.105518384817      0.703697506006      1.760342898953
 H        -7.328085313628     -0.299253256109      0.302587096625
 H         7.290492953453     -0.673790623166     -0.449128041060
 H         7.143148408197      0.669001018916     -1.613472707569
