19
0297
 O        -3.256321797042     -1.968839461573      1.057907649508
 N        -2.210727354078     -1.568550195378      0.540610837893
 O        -1.284625301042     -2.281039649547      0.157508160752
 C        -2.096312955684     -0.151015318035      0.349475392093
 C        -3.165753936782      0.767936274638      0.419052763060
 N        -2.758412898395      1.992543906133      0.105979150774
 N        -1.439753088278      1.855857925777     -0.149981047847
 C        -0.973764446221      0.588025827139     -0.023196052604
 C         0.435043939178      0.303885952971     -0.244568490425
 N         1.156243735124      1.100830801912     -1.050755997431
 N         2.387107602832      0.577888999540     -0.947051718095
 C         2.352680888293     -0.479893012078     -0.108951948058
 N         3.560058026407     -1.229963521874      0.180900142945
 O         3.483629661526     -2.163219537787      0.959493136435
 O         4.569637210953     -0.827905541422     -0.408401355106
 N         1.148426704253     -0.685471373541      0.364071332019
 H        -4.195041253720      0.562003426232      0.670663770806
 H        -0.891030229673      2.663746944344     -0.411951638600
 H         3.178815492350      0.943477552549     -1.460804088120
