21
0307
 O        -3.514401962115      0.861471114216      1.949707988543
 N        -2.948523925509      0.676624794244      0.884204823634
 O        -2.314719830854      1.495679006129      0.223565468523
 C        -3.036635365819     -0.653614415807      0.295521732624
 N        -4.067878705388     -1.420766724593      0.508885021807
 O        -3.838823024397     -2.522453081661     -0.255641008837
 N        -2.650170667845     -2.443438557455     -0.940048356445
 C        -2.138742356776     -1.280353144374     -0.618203360147
 C        -0.846265355860     -0.817396043909     -1.119692455871
 N        -0.461267984738     -1.008980797497     -2.361745688932
 O         0.811847069070     -0.444701566430     -2.388067556926
 C         1.047937092045      0.025500534091     -1.148389023534
 C         2.302544003655      0.707867883446     -0.880901422186
 N         3.028409675270      1.250534872673     -1.830515301064
 O         4.090034056336      1.830746732245     -1.193916606549
 N         4.030540189139      1.671757078089      0.160333072881
 C         2.943915361245      0.984889248967      0.363969250579
 N         2.583013007934      0.539013407347      1.707092331738
 O         2.156443731660     -0.608200929135      1.774647980595
 O         2.756469820292      1.327946247846      2.622136357951
 N         0.066275172654     -0.172025658431     -0.319843248386
