36
0317
 O        -4.494792401814      0.429669987800     -2.496181538652
 N        -4.440583493244     -0.436624982334     -1.648582323486
 O        -5.196927953313     -1.342016626518     -1.408604900951
 O        -3.317037635724     -0.416885009078     -0.773143555703
 C        -2.382545372278      0.648162592306     -1.050090659186
 C        -1.272792619423      0.466708354230     -0.036994997704
 C         0.001587967326      1.342248378443     -0.193549423598
 C         0.096530115480      2.604979604680      0.635507227483
 O         1.443968357410      3.082358891067      0.433461751339
 N         1.747266322208      4.269401300899      1.160150526251
 O         0.859185040576      4.744110161227      1.836755292437
 O         2.879979039251      4.639223396018      0.988179684805
 C         0.843410793348      0.109190175863      0.230501243735
 C         2.177178699653     -0.081854677868     -0.458250090934
 O         2.758665973808     -1.256502552219      0.143154660651
 N         3.996594097867     -1.638384396168     -0.435010847285
 O         4.480878405065     -2.603222688701      0.099034021737
 O         4.405094533340     -0.970854289129     -1.364195337336
 C        -0.366157407340     -0.788476787583     -0.143956278844
 C        -0.731529134095     -1.975564252898      0.720415491072
 O         0.231836042768     -2.999443680771      0.399153431960
 N         0.090350554537     -4.177923840794      1.176162048667
 O        -0.782243857261     -4.184538636661      2.021377088817
 O         0.884646861876     -5.031573133505      0.874459394263
 H        -2.882557854961      1.616502883145     -0.947154691000
 H        -2.010702269187      0.552657003393     -2.075124119679
 H        -1.679007430443      0.560972904025      0.977512779161
 H         0.174732663798      1.579667722733     -1.250325296959
 H        -0.064819052657      2.400925293238      1.698714779831
 H        -0.619491406798      3.367193681487      0.312035353404
 H         0.990593509618      0.113897061817      1.317505774083
 H         2.056237393572     -0.236742196902     -1.534758674099
 H         2.829961641339      0.781647059708     -0.298110666492
 H        -0.292541028753     -1.107405139445     -1.190918172989
 H        -0.673199135057     -1.731563584558      1.785567803098
 H        -1.742069960493     -2.329939976945      0.495403222104
