20
0323
 O         4.706304740918     -0.355945408397     -1.630169293757
 N         4.086747566296      0.491543992392     -1.038973012886
 O         4.357359909242      1.656377061698     -0.829397440291
 O         2.855533538170      0.006038117782     -0.523902739324
 C         2.091054610543      1.019206169938      0.172720569343
 C         0.804531878196      0.359646356673      0.546086521803
 C        -0.147423645744     -0.279271548560     -0.300708527715
 C        -1.126081808330     -0.660491212645      0.563136566530
 C        -2.418226606542     -1.391127040087      0.390308224373
 O        -2.929488420088     -1.236096040891     -0.941198210028
 N        -3.505163687059      0.059521152070     -1.181345797588
 O        -3.570540435813      0.820594342919     -0.241823779372
 O        -3.852495143598      0.194031836434     -2.324524843640
 O        -0.806689895701     -0.289451999677      1.820268380982
 N         0.432429225408      0.351505791571      1.807211850365
 H         2.622882519866      1.356933288997      1.064586585468
 H         1.927847539556      1.871023439170     -0.493622215246
 H        -0.097950410319     -0.433400727930     -1.367239672023
 H        -3.147880204508     -1.066619568869      1.135638853171
 H        -2.282751270493     -2.474218002588      0.469447979837
