38
0324
 O        -6.641721270161     -0.221994859691     -0.067759402704
 N        -6.117965020997      0.860204079058     -0.189013602395
 O        -6.443295821116      1.823907057914     -0.830823151216
 O        -4.911537369478      1.104581522787      0.552734837236
 C        -4.345813689547     -0.065753139370      1.164779797803
 C        -2.863210669048      0.079726704859      1.069989612206
 O        -2.167113387296     -0.412641364134      2.114431102629
 N        -0.805980217763     -0.246676137811      1.881927831330
 C        -0.719258793850      0.351851549396      0.710560506396
 C         0.601742899478      0.679860712728      0.182186821678
 N         0.722912581195      1.475436934371     -0.864292174058
 O         2.076767692238      1.586781923833     -1.095324393557
 C         2.756662059776      0.863301017675     -0.172582522051
 C         4.238327329492      0.849903291299     -0.300813395327
 O         4.550740694461     -0.359011652889     -1.035516480298
 N         5.957655672585     -0.607854452853     -1.125704399707
 O         6.694117141389      0.213329688799     -0.621605840485
 O         6.204170905400     -1.626349591873     -1.712672021860
 C         1.876683101047      0.250821355911      0.672539315182
 C         2.153181494953     -0.646158828384      1.840154919726
 O         3.500853235585     -1.148065867181      1.826102415563
 N         3.685465613125     -2.285663081728      0.957553147124
 O         2.707207560336     -2.722432235919      0.399670125679
 O         4.833681256309     -2.641755137435      0.928191339780
 C        -2.010708566203      0.592728359657      0.132910252589
 C        -2.318349328709      1.223115648671     -1.187204078774
 O        -2.029685331717      0.327127623356     -2.296138926251
 N        -2.997830295918     -0.679879762748     -2.490333768085
 O        -3.984158407906     -0.669685302085     -1.772953303974
 O        -2.710741658474     -1.440606279491     -3.377315595997
 H        -4.658861783088     -0.130736776051      2.211352110479
 H        -4.686260765727     -0.957895503825      0.635278501847
 H         4.584911987684      1.725671007147     -0.854252372431
 H         4.717127203000      0.816357675731      0.677850395413
 H         2.100725646945     -0.102779626265      2.788137174705
 H         1.436547975218     -1.466476151772      1.884808114042
 H        -3.350972046793      1.561147812387     -1.241930288619
 H        -1.636317626425      2.046561785924     -1.395122603621
