26
0325
 O        -4.826944106618      1.073805458480     -0.765279473617
 N        -5.042797599299     -0.001156157366     -1.278763053826
 O        -5.360741228045     -0.283882583577     -2.402936226723
 O        -4.918946921611     -1.166698416383     -0.443817581037
 C        -4.453538265175     -0.868089682028      0.879477394385
 C        -2.988623361664     -0.572449593392      0.887095880391
 C        -1.958543417262     -0.939749306598      0.080519299473
 C        -0.830676019488     -0.307639829228      0.683527507943
 C         0.560617846675     -0.342587043140      0.247951042647
 C         1.682805795244      0.316268608345      0.830843647597
 C         2.720307389101     -0.059259866181      0.036752952089
 C         4.172722553341      0.249346423296      0.043235271193
 O         4.362180850595      1.309431432306     -0.928822512071
 N         5.722653563369      1.698726487068     -1.063782172200
 O         5.875128568576      2.572272759412     -1.878086472066
 O         6.536137043185      1.127232540317     -0.365574450484
 O         2.272712745988     -0.877890162401     -0.946553689200
 N         0.905262082271     -1.054542585838     -0.808859575498
 N        -1.161302270961      0.373744992582      1.763714228322
 O        -2.538085631117      0.209721630664      1.892425340067
 H        -5.015488106561     -0.041587853379      1.320377911990
 H        -4.682361288925     -1.788262858131      1.426020569364
 H        -1.976491155068     -1.555025111536     -0.804772741860
 H         1.689784558706      0.961191635837      1.695374942394
 H         4.490113192029      0.590057554732      1.031041938387
 H         4.764013182714     -0.622978473858     -0.245009977659
