23
0342
 N        -2.347979368236      1.372729550803      2.182234474540
 C        -2.742284867208      0.146304427359      1.702451683092
 N        -3.948745730604     -0.389487873356      1.802955397169
 N        -3.843589352411     -1.638925282820      1.269303162310
 N        -2.652001679572     -1.881431755202      0.848599550765
 N        -1.914492412425     -0.758367833707      1.128352287427
 C        -0.515322770385     -0.677176772982      0.781456460255
 C        -0.345653322168     -0.537964177082     -0.738627930892
 N         1.050021228747     -0.314836497641     -1.077373551386
 C         1.927660482836     -1.102534044579     -1.752420637304
 N         3.114282879255     -0.524607628856     -1.803636923981
 C         2.891756527156      0.623885902320     -1.128878171975
 N         3.933589680028      1.624851209686     -0.911753375852
 O         3.614082238149      2.620766296076     -0.268800503351
 O         5.035697765343      1.385147717795     -1.388121881601
 N         1.667134500503      0.812470296607     -0.662224435410
 H        -3.135504751497      1.914391812032      2.519302359568
 H        -1.742508557276      1.917160980201      1.578999122306
 H        -0.010494742147     -1.577778301896      1.140618005221
 H        -0.078672925592      0.184941313767      1.291108837451
 H        -0.681401987176     -1.445824426365     -1.243916060269
 H        -0.932903439638      0.304995388133     -1.112854317696
 H         1.657330604315     -2.058510300294     -2.179373550389
