22
0344
 N        -2.644492731293      1.554529600011      1.207472398396
 C        -2.998624335713      0.380851721748      0.582472335614
 N        -4.225075189095     -0.020636234562      0.291625864185
 N        -4.090220886043     -1.272774989736     -0.230626487551
 N        -2.859052298806     -1.642016521053     -0.278183578804
 N        -2.131504704003     -0.606512079250      0.253228676095
 C        -0.695460468093     -0.682930452905      0.372643193470
 C        -0.035106339566     -0.539692837830     -1.007650345887
 N         1.412094446733     -0.468626850170     -0.872170209611
 N         2.236464122371     -1.451645960090     -1.261602230861
 N         3.442925124725     -1.058729295454     -0.944533788573
 C         3.284907940445      0.149021092795     -0.368685428506
 N         4.391458220232      0.950092948791      0.138694004935
 O         4.095671777380      2.023552484424      0.653005114254
 O         5.512472062186      0.478048291651      0.006455994959
 N         2.024797895101      0.556679704451     -0.300096670140
 H        -1.855515015937      2.050661486697      0.808957307209
 H        -3.445219315925      2.163696794728      1.332858159876
 H        -0.429422042011     -1.643892020573      0.820053920057
 H        -0.362635646802      0.114017021247      1.042745639863
 H        -0.253992405008     -1.402882050591     -1.636751790283
 H        -0.374470210877      0.369288145672     -1.510112078696
