17
0353
 C        -3.270390561994     -0.160803699353     -0.746043555937
 N        -2.168227064717      0.769236043705     -0.569534067371
 N        -1.072978404533      0.175688287270     -0.354762149312
 O        -0.880840014557     -1.079620374236     -0.287172641468
 C         0.091011381545      0.994773553204     -0.164067626444
 N         0.078310985699      2.297473617508     -0.200150259035
 O         1.360526284269      2.664648505397      0.023774019804
 N         2.210376925194      1.578139486993      0.206699378569
 C         1.425330061908      0.530481760840      0.090922983579
 N         1.762772400140     -0.794979869885      0.186724743730
 N         3.039943428658     -1.291058857186      0.432210534218
 O         3.939963437482     -0.482370279693      0.575100352485
 O         3.097559757260     -2.513675753573      0.474380250181
 H        -3.394384201195     -0.791072792633      0.144210283158
 H        -3.078676560308     -0.836056710436     -1.590107958561
 H        -4.168760895162      0.428672919460     -0.924868149663
 H         1.028663040312     -1.489575837381      0.071083862067
