18
0360
 O        -3.596064720435      2.044012540533     -1.509351971426
 N        -3.829994755316      1.033264251035     -0.859134632628
 O        -4.928815680135      0.582173279852     -0.562208720674
 C        -2.669545779784      0.277431233933     -0.382009507296
 N        -2.799377446823     -0.860760366672      0.348423541392
 C        -1.550394134512     -1.197871656560      0.556535909215
 N        -0.712919187413     -0.282673060410     -0.035279469990
 C         0.682993066792     -0.248233518410     -0.066037601889
 N         1.425043688431      0.660940780965     -0.652994582430
 C         2.672012801557      0.212398377202     -0.373496249289
 N         3.872633087848      0.914327226359     -0.830545108793
 O         4.947638740617      0.415191678705     -0.518441401916
 O         3.692785654032      1.934094271337     -1.481642706079
 N         2.767332562552     -0.896999726783      0.336404061369
 N         1.461494123150     -1.190430552036      0.532606380469
 N        -1.444885300373      0.681960269961     -0.649056940738
 H        -1.208474419200     -2.062420477593      1.108556446026
 H         1.218537699013     -2.016404551418      1.063172554675
