20
0361
 N        -1.196630702908      1.816839098434      1.176627265210
 C        -1.523330787427      0.844739147970      0.246101580550
 N        -2.719732369519      0.527977194082     -0.195217871823
 C        -2.451811185670     -0.522219797255     -1.016289756309
 N        -3.512179374479     -1.220308848853     -1.745268674531
 O        -3.160928769959     -2.105306307129     -2.515602749022
 O        -4.659120500272     -0.856059603826     -1.514660507142
 N        -1.198310969402     -0.895473792777     -1.139619035831
 N        -0.584583621052     -0.007943002647     -0.297770494097
 C         0.779452997676     -0.083934355895     -0.020753029719
 N         1.727433360454     -0.536050874650     -0.810355251852
 C         2.821641852116     -0.380475392990     -0.027181285622
 N         4.161970610524     -0.753700938019     -0.479616200999
 O         5.081675071407     -0.543307683242      0.303327267540
 O         4.244556290787     -1.240903121382     -1.599099653786
 N         2.634762326636      0.141690221496      1.173378202491
 N         1.298005782959      0.325951863064      1.168440878457
 H        -0.518810403289      2.498208764410      0.840593847640
 H        -2.036927299844      2.288738565161      1.499252350663
 H         0.812867691262      0.701538864048      1.975613118180
