26
0374
 O        -2.499188598356      1.872533073535     -1.545949193726
 N        -3.148209139533      1.004964483859     -0.993184300154
 O        -4.276776016324      0.625644165942     -1.235922883503
 C        -2.409595980925      0.323142341941      0.176301126569
 C        -1.049429783046     -0.076193399907     -0.278303720439
 N        -0.857390925224     -0.626524136633     -1.517021976697
 C         0.428064753793     -0.850075720218     -1.555779062250
 N         0.992259606952     -0.471257634389     -0.351876439509
 C         2.332629557953     -0.273318404000      0.033342268737
 N         2.919841486947      1.050475863024     -0.563485651492
 O         2.095013395103      1.872334882212     -0.904476803537
 O         4.132795023987      1.105245021877     -0.605772722764
 N         2.412009845023     -0.175844371009      1.577342335535
 O         2.830406212511      0.870664315010      2.026248414182
 O         2.043547068962     -1.177418467725      2.152719958466
 N         3.281551152926     -1.385547495773     -0.431984752416
 O         3.117355241758     -1.743623569594     -1.589733361418
 O         4.121303762264     -1.754364371762      0.357693920204
 N         0.027604795870      0.058496369462      0.460337020179
 N        -2.376660509610      1.286645481086      1.372661844458
 O        -2.816679630474      2.406070992915      1.204910454694
 O        -1.911061957085      0.793060335549      2.383550968343
 N        -3.263059192428     -0.881372657267      0.634266045579
 O        -4.211700624397     -0.610456084712      1.344085794191
 O        -2.909965353672     -1.969195090290      0.217787972151
 H         0.995335807025     -1.273985923134     -2.367557255384
