16
0375
 O         0.775023346433      2.633152633589      0.486708738982
 N        -0.280091100414      1.838099686324      0.149122009288
 C         0.006288035492      0.577828952118      0.068780973896
 C         1.298332761176     -0.068119995985      0.293497403469
 N         2.461950525849      0.481721367817      0.627699391451
 N         3.344671009550     -0.540849965411      0.713503162703
 N         2.774239276457     -1.682512565633      0.448097842227
 N         1.492952902133     -1.405682132781      0.182863740032
 C        -1.141126761193     -0.258735784375     -0.295071908677
 N        -1.163545825640     -1.574095552909     -0.453499688400
 N        -2.440825732887     -1.902855953565     -0.788338579243
 N        -3.187935666716     -0.848794551497     -0.839049091924
 N        -2.388457179885      0.194300888242     -0.531892718591
 H         0.385793735319      3.524296237082      0.500166874870
 H         0.798293749951     -2.111555955159     -0.060645446766
 H        -2.735763075626      1.143602692143     -0.501942703316
