19
0377
 O        -3.754485495903     -0.877159548445     -0.063134861759
 N        -2.577238742446     -1.172885772124     -0.100857351966
 O        -2.202832634949     -2.596033138777     -0.247546786504
 N        -0.840471233819     -2.704658967535     -0.266846871073
 C        -0.363266304576     -1.489683477705     -0.147743110621
 C         1.010400690992     -1.037711687944     -0.111412418575
 N         2.178009306547     -1.753127182844     -0.191332650442
 C         3.133862195040     -0.850571760389     -0.106811812349
 N         2.643319621424      0.425312927154      0.025119502687
 C         1.274978827770      0.323814272369      0.024056825646
 C         0.244293857094      1.314392914655      0.130846723763
 N         0.336153211912      2.616286943088      0.261483947416
 O        -0.942902072587      3.093236817997      0.318257268191
 N        -1.892675286186      1.950106193022      0.209351298604
 O        -3.082309778685      2.181513948014      0.240705233819
 C        -1.117996303742      0.871172659801      0.095348810985
 C        -1.416960333952     -0.519150693766     -0.042802803625
 H         4.194826037903     -1.055635166517     -0.134597614715
 H         3.175294438163      1.280880719946      0.107816670517
