24
0379
 O        -0.258514908025      4.471065941317      0.400529713540
 C        -0.189300125230      3.273970836860      0.293247684933
 N         0.966472883643      2.475547214987      0.195858991847
 C         0.648857798738      1.153810301857      0.082069224507
 C         1.417853454303      0.005188158587     -0.031644256963
 N         2.869213805684      0.117072037154      0.074803754883
 O         3.350276083852      1.236828108904     -0.130878621818
 O         3.501739524119     -0.879677358350      0.389583963143
 C         0.763401015945     -1.241373770315     -0.131901445852
 N         1.538163572910     -2.488026030649     -0.346421217194
 O         2.158048299324     -2.552113297233     -1.395408414678
 O         1.453890027196     -3.336472475162      0.528223315220
 C        -0.615052945501     -1.324100468360     -0.097899485948
 N        -1.240111500376     -2.669232841317     -0.115902665358
 O        -1.067749142255     -3.334105897776     -1.125951629718
 O        -1.838109271137     -2.988624773820      0.898556143282
 C        -1.408717745779     -0.162657734640      0.017634320845
 N        -2.864359838837     -0.200552269271     -0.082000845855
 O        -3.381826916728     -1.191694683866     -0.574497201809
 O        -3.468228967158      0.802771015606      0.313304704982
 C        -0.777326416657      1.068224026697      0.117000744297
 N        -1.245140990816      2.344084849069      0.235928983353
 H         1.908502516432      2.838681078620      0.139692731483
 H        -2.221880213648      2.581388031102      0.345971508878
