15
0380
 N        -1.648994174128      1.475787881370     -0.254871655969
 C        -0.630710736284      0.604780223880     -0.106412039992
 N         0.693096518298      0.929038111099     -0.067242390672
 C         1.386353389380     -0.249215644689      0.155930009796
 N         2.816034830059     -0.207332921704      0.239143962428
 O         3.313688163561      0.923222149273      0.101066055382
 O         3.424023361686     -1.249456158978      0.435107050950
 N         0.614389956798     -1.291127982839      0.259204698116
 C        -0.640191967079     -0.791824953962      0.101573927782
 N        -1.812905629218     -1.595691387718      0.116658295937
 O        -1.714164495416     -2.801957534179      0.289222495956
 O        -2.890887967540     -0.984227373781     -0.057846177587
 H        -2.552936117846      1.029405896291     -0.372953153434
 H        -1.492080046645      2.373018565422     -0.690656211099
 H         1.135484914374      1.835381130513     -0.147824867594
