16
0385
 N         3.629033551613      0.408733784817      0.166451868462
 C         2.324683406742      0.063528348960      0.334984742257
 N         1.788444127388     -0.666365226270      1.275128225610
 N         0.416404487316     -0.630447300309      1.027725988464
 C         0.234582037600      0.096810381176     -0.032339779265
 C        -1.026775977275      0.376266289414     -0.663985137050
 N        -1.191614115366      1.027613256569     -1.789681075796
 O        -2.530506049440      1.016482903352     -2.024846776889
 N        -3.232660248982      0.340975162443     -1.024935949587
 C        -2.312093996599     -0.055287752960     -0.174553603914
 N        -2.542850881002     -0.711389642364      0.994916090476
 O         1.415796233042      0.581716167251     -0.535881042451
 H         4.279614583046     -0.155727180983      0.696468860500
 H         3.918562588496      0.623022573974     -0.778551556804
 H        -3.435780289550     -1.170134887078      1.102258260266
 H        -1.734939457030     -1.145696877992      1.426740885720
