15
0395
 O        -3.172723175900     -1.275729805555      1.170629757111
 N        -2.334548721542     -1.160545912202      0.288338382921
 O        -1.863749957730     -2.041550587709     -0.418360872277
 C        -1.845265880764      0.187368394096      0.009062134036
 N        -2.682297563363      1.157304411370     -0.218104285337
 O        -1.900102469325      2.230890372592     -0.527386879989
 N        -0.561922464372      1.919020117478     -0.469829946341
 C        -0.501858191471      0.648004879305     -0.145643570668
 C         0.754509181983     -0.041265435359      0.046821526525
 N         0.915968904999     -1.223658697898      0.605107437679
 N         2.264596055179     -1.484053887679      0.631739288760
 C         2.876295606808     -0.451596815708      0.091264166215
 N         1.970434356119      0.492145910197     -0.294535407404
 H         3.943184567358     -0.347014257480     -0.040997005075
 H         2.137479752022      1.390481314553     -0.728004726156
