33
0398
 O        -0.255667619256      2.871891102533     -0.954203919625
 N         0.847952053568      2.453278570582     -0.660361095006
 O         1.913582919911      3.043692560574     -0.697867216073
 N         0.918333453333      1.108848575299     -0.190761278168
 C        -0.211202018010      0.238085145466     -0.450543707067
 N        -0.835625008175     -0.269654132764      0.767623411817
 C        -1.585431261185      0.584927045060      1.595989304059
 N        -1.164068635970      1.789622653712      1.886690836618
 O        -2.184403290708      2.367086727348      2.573949287407
 N        -3.250747686671      1.515936116894      2.731198735359
 C        -2.905643089048      0.406329770876      2.124148777127
 C        -3.801821360577     -0.736338277043      2.026080609635
 N        -5.099792552785     -0.701301024492      1.770227089566
 N        -5.508898375010     -1.996155995817      1.763021067574
 N        -4.522187605274     -2.804563385900      2.000634183996
 N        -3.434434751537     -2.029406622428      2.161068500173
 N        -0.208881510505     -1.364063286079      1.393926599472
 O        -0.639185852883     -1.668408902251      2.505258315526
 O         0.664420408333     -1.937988502150      0.767674282060
 C         2.210731044757      0.608144679625     -0.004155751475
 N         2.769117593799      0.543367550711      1.176396048526
 O         3.994829931955     -0.010539089470      0.969249041973
 N         4.210994452870     -0.303997243521     -0.358689403899
 C         3.116787012850      0.068444129056     -0.970952910264
 C         2.894347690030     -0.069440371945     -2.392092339358
 N         1.729944271578      0.106012409077     -2.996594113011
 N         1.952708823031     -0.136127319702     -4.316026291180
 N         3.191175395616     -0.446314341532     -4.529826656174
 N         3.802779961863     -0.411764075691     -3.327090502558
 H        -0.958394039591      0.824620973162     -0.980027267382
 H         0.089793171888     -0.608950836872     -1.063034738611
 H        -2.530231860842     -2.415858204488      2.412108568612
 H         4.789418332645     -0.619316397832     -3.235017469651
