40
0400
 N         4.371698860743     -1.644324789690     -2.836657079940
 N         3.916023580765     -0.420266124561     -2.330072211259
 C         3.975281541438     -0.343202051137     -1.044936393779
 N         4.364741523814     -1.382731818026     -0.207836605039
 C         3.511279077806      0.908204047315     -0.421114829284
 N         3.747607433301      2.094056656792     -0.927867287536
 O         3.083265764022      2.987210173322     -0.108499227210
 N         2.449792870512      2.360747934579      0.917668718814
 C         2.705737981913      1.087405598259      0.752021209617
 N         2.100016000174      0.114466679568      1.566216124429
 C         0.644484059883      0.084488081607      1.742328060747
 C        -0.021157527156      0.128863051316      0.359144684884
 N        -1.464321414277     -0.106208081096      0.420768355673
 C        -2.352869924825      0.918605980371      0.777629992642
 N        -2.013525729334      1.848146658465      1.633446054190
 O        -3.067948701092      2.711742055051      1.657841838743
 N        -4.081641784798      2.307108982382      0.817172120863
 C        -3.659886527644      1.200552499163      0.254793605185
 C        -4.434395569148      0.435788389566     -0.732575832070
 N        -3.718048157833     -0.294650027153     -1.685385189372
 N        -5.716249470312      0.433281748477     -0.636017549532
 N        -6.350307363886     -0.329508888915     -1.624852660948
 N        -1.879354765862     -1.427218923515      0.737280966147
 O        -3.037896457827     -1.564453294081      1.091084273836
 O        -1.034302023688     -2.299189406273      0.588782841818
 N         2.888616823108     -0.411376054364      2.593501631041
 O         2.320713993919     -1.042714465258      3.468020820338
 O         4.102112226845     -0.212584932411      2.498267745575
 H         3.912186057636     -2.434910146474     -2.374008377590
 H         4.129560212380     -1.667133999013     -3.822239918705
 H         4.615022002700     -1.102385745888      0.735609177655
 H         5.075358815226     -1.970645901983     -0.636619957940
 H         0.409688909601     -0.856800117974      2.236340199885
 H         0.304700057960      0.918593472304      2.363508301250
 H         0.414254570138     -0.628279607687     -0.293952481703
 H         0.099764701280      1.108971366841     -0.105036110672
 H        -4.235052845618     -0.369402392055     -2.558977360086
 H        -2.769095295466      0.022621876881     -1.842522382154
 H        -5.974346511023     -1.282260031510     -1.651966900977
 H        -7.331606995374     -0.385008453194     -1.370288367535
