60
0404
 O        -5.648656310820      7.066357659839     -2.782267119103
 N        -4.762853724258      7.210356899539     -1.943011890040
 O        -4.457205741747      8.271211152668     -1.404803159211
 C        -4.004536946234      6.010512527210     -1.552244641070
 C        -4.320849795516      4.786576743715     -2.135568757178
 C        -3.581138283732      3.664414797940     -1.784884551572
 C        -2.558970322506      3.762454507183     -0.836146280569
 N        -1.780620410982      2.619290832725     -0.565672771288
 N        -0.467271372519      2.700982112862     -0.303277983693
 C        -0.111929825348      1.427017898877     -0.161638891784
 C        -1.264164774515      0.602908001323     -0.366699378615
 N        -2.309234797291      1.384566323705     -0.627822188504
 C        -1.150013805305     -0.829900336641     -0.273404887673
 N        -2.054501901925     -1.793381271970     -0.424789397776
 N        -1.342228243442     -2.910426149207     -0.211979251173
 C        -1.915821402786     -4.192653723236     -0.324572612304
 C        -1.137051669023     -5.228151388754     -0.849742600459
 C        -1.688482808523     -6.487509018909     -1.048091920656
 C        -3.032825590096     -6.688657890813     -0.747063383885
 N        -3.632524254224     -8.011935846465     -0.985096380851
 O        -4.820080584969     -8.151982944157     -0.704739509683
 O        -2.902290722979     -8.884236699362     -1.449406077213
 C        -3.829821856934     -5.679900833914     -0.221477392077
 C        -3.253896977022     -4.440214370489      0.016399598481
 N        -4.084918055366     -3.455456359516      0.734725157611
 O        -5.256245438807     -3.362380902394      0.384827542488
 O        -3.554514144863     -2.858850453775      1.663965881578
 N        -0.032326287594     -2.752273768146      0.046832934816
 C         0.116031782515     -1.429925004060      0.019780114854
 C         1.275197053874     -0.600163500448      0.225956993942
 N         2.539053971033     -0.911543062120      0.499856139352
 N         3.134017081134      0.288563724536      0.578484183148
 C         4.517669264920      0.420530830021      0.810612945958
 C         5.206200216534      1.454288418273      0.168874619556
 C         6.582889801331      1.572362666810      0.310907184432
 C         7.264442928815      0.627277747933      1.072901862941
 N         8.727609022652      0.727209952546      1.201411536645
 O         9.293517927282     -0.122834117323      1.883813692908
 O         9.280909405594      1.654486032100      0.615106808964
 C         6.606790707163     -0.408267805163      1.724187197216
 C         5.225993627403     -0.486466077684      1.612880843836
 N         4.553500571235     -1.491053530489      2.458391541947
 O         3.565455862140     -1.117787374813      3.079031226723
 O         5.076374575736     -2.598192751666      2.521226140706
 N         2.358304891188      1.363874336591      0.355260875473
 C         1.162311167055      0.823761191764      0.133427094241
 C        -2.297641103250      4.999643664896     -0.228646309306
 N        -1.360853210544      5.146559014853      0.901474720658
 O        -1.413173586715      4.290884515784      1.776596361563
 O        -0.652774349961      6.147419829716      0.904424345137
 C        -2.996831047236      6.137477929347     -0.604914513744
 H        -5.116710666209      4.732148583095     -2.867090971034
 H        -3.772612810417      2.702051875194     -2.242975269435
 H        -0.105151314800     -5.022206456079     -1.105516888674
 H        -1.102870765557     -7.302872123737     -1.452715657237
 H        -4.868576514820     -5.860755147525      0.020731235183
 H         4.645144726701      2.148054781236     -0.444766034481
 H         7.134752818999      2.365594450700     -0.176646825537
 H         7.152780173157     -1.123523388892      2.324761303216
 H        -2.776876157626      7.094763294765     -0.151476587752
