18
0405
 N         2.650425156402     -1.994327468475     -0.064942485772
 N         1.413857798187     -2.393100888567     -0.063525212696
 C         0.600115369097     -1.292629800114     -0.032978327196
 C         1.395279430266     -0.134026292466     -0.014264533824
 N         2.654452198488     -0.629869920162     -0.035299276233
 C         0.819699648462      1.166142841526      0.018682345810
 N         1.366176235923      2.421129157605      0.041519323816
 N         0.402655585333      3.292356452045      0.068293411738
 N        -0.781243131546      2.613397876630      0.063177536776
 C        -0.581344609764      1.275146686036      0.032453567211
 C        -1.419852854833      0.126497974914      0.014313396990
 N        -2.780079452767     -0.028025438249      0.022029468801
 N        -3.053123889793     -1.298036368259     -0.003342685909
 N        -1.873236250311     -1.983533346856     -0.027855799209
 C        -0.813966362500     -1.141110431182     -0.018175944695
 H         3.534836763221     -0.133718021359     -0.031655542377
 H        -1.651071894800      3.127520981845      0.081409762135
 H        -1.883779739065     -2.993813994913     -0.049739005366
