18
0413
 C        -2.708300002708      0.249445889723     -0.156810115695
 N        -1.246291174801      0.234058832184     -0.068429678305
 N        -0.604314101259      1.390376313408     -0.095047285266
 C         0.693143458131      1.097654292626      0.014934176940
 N         1.643766243477      2.178825494678      0.079959677835
 O         2.796913984147      1.859713436326      0.391436431726
 O         1.253410742471      3.313205761932     -0.155927486763
 C         0.928148465911     -0.300699621223      0.114843411101
 N         2.039126964580     -1.102341075465      0.252099489336
 N         3.188233412855     -0.691964401527     -0.005218453594
 N         4.296183074108     -0.559623985546     -0.204614494140
 C        -0.375042284520     -0.821157863859      0.058057669262
 N        -0.800393306672     -2.186213899535      0.094284849880
 O        -2.008274048399     -2.408023873095     -0.056800109925
 O         0.064087352170     -3.039420093178      0.270046845193
 H        -2.986599386621      1.301255417058     -0.202746958893
 H        -3.033951644358     -0.282525863384     -1.050455342288
 H        -3.139947748512     -0.232464761125      0.720287373594
