27
0432
 N         3.218755077488      3.159699643274     -1.639992233720
 N         2.631236492719      2.260574990737     -1.281689310312
 N         1.770468108035      1.405010647952     -0.986142630324
 C         2.094672471703      0.209887520267     -0.380146358951
 C         3.163054435116     -0.471509747550      0.193743090008
 N         4.500594598224      0.013978821536      0.332718099871
 O         4.699619540592      1.164072223579     -0.095760006876
 O         5.342291730246     -0.703785418604      0.852495287416
 N         2.790786440239     -1.707166531449      0.648731009597
 C         1.519090322269     -1.817995939386      0.371258024733
 N         1.044036723762     -0.685141430552     -0.253543627693
 N        -0.269209424501     -0.495206445407     -0.665709637474
 C        -1.008297484906      0.442313080137      0.182213826795
 C        -2.464326667035      0.000052972351      0.247692205148
 N        -3.229750599958      0.303736429101     -1.042265411638
 O        -2.545047822995      0.384473856259     -2.053288269982
 O        -4.434790020937      0.425048037091     -0.947226634419
 N        -3.222452401212      0.712230558062      1.364476128130
 O        -3.973623119671      0.050373290837      2.051697271548
 O        -2.993793816061      1.912293033324      1.427820462907
 N        -2.541508543260     -1.507492536912      0.496261250945
 O        -3.181469024406     -2.175165959597     -0.291462988078
 O        -1.916104150788     -1.879327365924      1.474955882635
 H         0.868287731648     -2.653624431038      0.584308200935
 H        -0.289415736001     -0.207942993737     -1.640058367822
 H        -0.607461161947      0.376624001569      1.194775445663
 H        -0.965743698364      1.483689694080     -0.145560709041
