28
0435
 N         2.391215020133      3.420205751775      0.959129894106
 N         2.328053434002      2.337106621920      0.644115676903
 C         2.196606939360      1.105535901998      0.222139311184
 C         1.198291713043      0.669647865339     -0.767791761121
 O         0.328276114377      1.268945298307     -1.375017431693
 N         1.476097012054     -0.709578200498     -0.840300705249
 C         0.628680222999     -1.682310549016     -1.506545586642
 C        -0.471464705270     -2.198652825379     -0.569290890491
 N        -1.401170397940     -1.141530643844     -0.213857844588
 N        -2.358653412054     -0.766123108753     -1.103405253692
 C        -2.883976413727      0.327751403147     -0.642075093889
 N        -3.958627997086      1.016662104829     -1.315685468248
 O        -4.341745406188      2.048393827213     -0.750056464282
 O        -4.397509341180      0.551642775246     -2.357125658386
 C        -2.271401615285      0.741866411294      0.584951401759
 N        -2.495561422455      1.803162834029      1.316714668661
 N        -2.638383693260      2.694878852209      1.995512313078
 C        -1.215502811286     -0.246576325136      0.858187687026
 O        -0.366525670212     -0.321493982526      1.729065654294
 N         2.435686592414     -1.138379340991      0.022439585153
 C         2.873993689783     -0.084992958788      0.641804308923
 N         3.923168452880     -0.146875815651      1.631058157103
 O         4.424660374130     -1.229964053907      1.893516065385
 O         4.220277843425      0.944111330092      2.133709405924
 H         0.185908255642     -1.186942045889     -2.373419523088
 H         1.261561814804     -2.507476545645     -1.840794578983
 H        -0.033661321102     -2.571279034050      0.359355673562
 H        -1.038493272000     -2.997535547323     -1.052433542708
