38
0445
 N        -0.120580462386     -0.954623585406      0.965818503973
 N        -0.035294892078      0.121016453492      0.071706623725
 C        -0.956933558676      1.126643102599     -0.014604197754
 C        -2.211765419770      1.147105973018      0.781446909952
 N        -3.209829547978      0.219685418371      0.219486054538
 C        -4.542182101407      0.398638280568      0.092775111863
 C        -5.040623291156     -0.783541599845     -0.431030287139
 N        -6.443243345069     -1.045286929129     -0.630762037306
 O        -7.175114128337     -0.055089993859     -0.691384160195
 O        -6.802624999334     -2.215438507735     -0.688182757285
 C        -3.907246462442     -1.614928421439     -0.581449321881
 N        -3.763002629422     -2.938012009900     -1.173950887108
 O        -2.836839208101     -3.628861150892     -0.755930885442
 O        -4.553146238834     -3.233300929271     -2.060605190197
 N        -2.805594283663     -0.997460857476     -0.189817233129
 N        -0.597319737502      2.001520489437     -0.930515730612
 N         0.601862037375      1.576963368209     -1.453667292187
 C         0.916328734103      0.441331581577     -0.863655084361
 C         2.135916712881     -0.362856549749     -1.152532610789
 N         3.156889956258     -0.218525122924     -0.101902724660
 N         2.938213792086     -0.820745487836      1.092811967677
 C         3.924293214541     -0.426197329343      1.892153166567
 C         4.785836363006      0.453451588504      1.214590509282
 N         6.007130180543      1.004572315010      1.740085059820
 O         6.823360703329      1.449104893790      0.938704770150
 O         6.136798036872      0.959173280086      2.963438200452
 C         4.255558341886      0.568848443092     -0.064943029660
 N         4.676836523733      1.372960126171     -1.200088935045
 O         4.654367119550      0.821716200703     -2.300932294834
 O         5.005202185746      2.523005303832     -0.961656902922
 H         0.829380365129     -1.226751129620      1.220889517333
 H        -0.631185770070     -1.710633567098      0.510115150338
 H        -2.014931183528      0.845943491787      1.814459485694
 H        -2.639139975569      2.149725586827      0.753918598104
 H        -5.053920431704      1.305238306541      0.376662476877
 H         2.568914050120     -0.028440409762     -2.092890659871
 H         1.915928215957     -1.431587050748     -1.216447182172
 H         4.007901133910     -0.782363571584      2.907987298205
