28
0456
 O        -5.130496274463      0.088250538778      0.015256329763
 N        -4.465947021151      0.672469767156     -0.807271878281
 O        -4.652836893290      1.707208175794     -1.382792348379
 O        -3.237518452406      0.037944489362     -1.243004496174
 C        -2.846276291972     -1.085199348029     -0.447064304481
 N        -1.411479364255     -1.019578512814     -0.309612548607
 N        -0.632735987713     -1.826692940256     -1.061026188177
 C         0.623922734846     -1.481562697589     -0.811612811918
 N         1.733646521803     -2.158005314639     -1.434358762650
 O         2.850457684942     -1.743519940297     -1.094574467533
 O         1.509842889386     -3.061931720757     -2.222665468904
 C         0.679447738900     -0.405393050472      0.106836963254
 C        -0.651505880767     -0.125354185638      0.401436395664
 C        -0.596780995985      0.965910502566      1.301942597602
 N        -1.706741186625      1.646671632530      1.919534615456
 O        -2.821443460523      1.192269774294      1.627171394840
 O        -1.484890403823      2.587512205640      2.663983549414
 N         0.659118819993      1.325518075923      1.534146244183
 N         1.439820782219      0.481207372655      0.826947108896
 C         2.867076820071      0.690299673712      0.793899010574
 O         3.167304713648      1.297424372113     -0.466774138995
 N         4.387919526524      0.813076050960     -1.080780178309
 O         5.118991040853      0.133081406942     -0.400604392043
 O         4.499133441420      1.208903934851     -2.206740879459
 H        -3.075063412577     -2.018261391674     -0.962129096498
 H        -3.323713560410     -1.032027322279      0.528429650873
 H         3.109284890660      1.367708936887      1.612857228643
 H         3.391661580695     -0.258030485719      0.882470871247
