16
0461
 N        -2.081158928510     -1.464807521046     -0.786884944623
 N        -0.810828676185     -0.888141747558     -0.839576980968
 C        -0.335560665938     -0.010501363669      0.070560163842
 N        -1.196343063922      0.452262569421      0.990079150951
 C         1.034264259164      0.393933220555      0.069205767635
 N         1.486382922961      1.507577331053      0.844377748094
 O         2.517414866749      2.084956868678      0.526920413221
 O         0.776279707487      1.885784958551      1.810511693811
 N         2.018113196290     -0.293345278442     -0.708727632943
 O         1.620932966895     -0.967340896620     -1.690605036083
 O         3.195047225415     -0.244429132732     -0.378027535889
 H        -2.803990863982     -0.786778072056     -1.022591627676
 H        -2.261138787535     -1.871062806974      0.130067183535
 H        -0.145269753702     -1.252584336150     -1.516152165486
 H        -0.828221649945      1.139798375401      1.645513333463
 H        -2.185922755243      0.314677831590      0.855430469117
