26
0464
 O         5.214838562710     -1.313903162384     -0.029411142964
 N         4.591047602222     -1.239844719267     -1.069329521704
 O         4.942223489270     -1.418065073267     -2.204723593758
 O         3.216000529077     -0.886600053111     -0.966946087887
 C         2.791032785263     -0.671050667638      0.405502604651
 N         1.404676995437     -0.328966545610      0.331448961024
 C         0.970359053525      0.965259126745      0.068888025323
 N         1.681731399858      2.053128479164      0.045770073626
 O         0.769690448393      3.066941466289     -0.208669778230
 N        -0.520141553126      2.574795694758     -0.344716454912
 C        -0.404161721084      1.290537233462     -0.179566516532
 N        -1.404643198704      0.328961967363     -0.263234407230
 C        -2.790994797611      0.671036673910     -0.337393090394
 O        -3.216060108166      0.886606511856      1.035021668344
 N        -4.591116832410      1.239846931262      1.137302577404
 O        -4.942373463577      1.418081498231      2.272669220379
 O        -5.214835118406      1.313883664505      0.097339103522
 C        -0.970337734802     -0.965255441718     -0.000611001116
 N        -1.681700873193     -2.053132091653      0.022452418792
 O        -0.769742882586     -3.066879096233      0.277456267243
 N         0.520172266073     -2.574798329670      0.412939185970
 C         0.404182904393     -1.290533890096      0.247843639288
 H         3.351155155155      0.153490181779      0.845722518274
 H         2.914470654507     -1.586356202021      0.983756344504
 H        -2.914394319492      1.586332007698     -0.915671601027
 H        -3.351079242724     -0.153516164354     -0.777639412587
