16
0476
 N         2.403992376123     -0.336601096882     -0.298306013576
 C         1.087711476615     -0.393571659400     -0.074302996342
 N         0.684575697434     -1.660931189950      0.308368159837
 N        -0.574393276648     -1.903067134013      0.569349344751
 O        -0.948425625276     -3.027854373576      0.911174173666
 C        -1.517841979862     -0.857436730298      0.456956511528
 N        -2.803677634228     -0.947377034936      0.684186620318
 O        -3.252170530155      0.302393777088      0.441839609849
 N        -2.249661793259      1.194497441353      0.058340884957
 C        -1.148907285383      0.459222794881      0.067854334828
 C         0.221084904570      0.712786010283     -0.213716943203
 N         0.660166017425      2.007369614194     -0.609223716324
 O        -0.189203915032      2.891562623349     -0.695665760271
 O         1.874256788297      2.184203282966     -0.847497748538
 H         2.802269944353      0.551586257248     -0.584560567725
 H         2.950324835027     -1.176882582307     -0.174895893756
