15
0477
 N        -2.987162654291      0.138693840742     -0.505096899301
 C        -1.767094934611     -0.366678441966     -0.090471457177
 N        -1.520215851666     -1.564160148383      0.402900486585
 N        -0.127866952771     -1.719965275260      0.592897902130
 C         0.366081332947     -0.576797610944      0.206733992938
 N         1.558526989315      0.118910372563      0.079640766582
 N         2.853794622809     -0.292353722543      0.394484961017
 C         1.226123811147      1.362523809425     -0.418704156639
 N        -0.054382648824      1.531917051334     -0.627731226289
 N        -0.576981748017      0.307158399591     -0.235551523522
 H        -3.146067818809      1.100672608572     -0.221656796046
 H        -3.742727591263     -0.464493544229     -0.198042377948
 H         2.873019324180     -0.555316467469      1.379903398204
 H         3.062027403359     -1.129327897403     -0.149995858190
 H         1.982826716494      2.109217025969     -0.609311212344
