29
0485
 N        -0.007852422411     -2.252249001802      0.096323103595
 N         0.020315792742     -0.837051023141      0.047285107092
 C         1.157586590639     -0.066108836827     -0.010777193796
 C         2.522644964452     -0.258626124801      0.250677907577
 N         3.204767864528     -1.430156734482      0.718683512652
 O         4.159671791464     -1.255898302704      1.463604876196
 O         2.796818314848     -2.535178316754      0.332818514141
 C         3.100825432524      1.022079389184      0.046730465236
 N         4.515238355190      1.384978861119      0.077082985765
 O         5.287771894886      0.547525652702     -0.376332216257
 O         4.795242929911      2.490763861743      0.516878485406
 N         2.225475946509      1.926188377059     -0.326932686740
 N         1.045097372140      1.257276384946     -0.344472097585
 C        -0.129719453989      1.911236989349     -0.897006115843
 N        -1.259866642057      1.098174896564     -0.494869297375
 N        -2.521503767558      1.575279794190     -0.579837056017
 C        -3.272089567352      0.554641001013     -0.207684347020
 N        -4.711788473602      0.744257129106     -0.081820841795
 O        -5.259431176072      0.089389416809      0.799941475112
 O        -5.238943369613      1.544396257328     -0.842340419368
 C        -2.510706271064     -0.587178000523      0.145682005129
 N        -2.968089889072     -1.847016850339      0.684300352797
 O        -2.340098612995     -2.295170275273      1.646289884002
 O        -3.947791142749     -2.357334158364      0.160289213841
 C        -1.195507135532     -0.196574716153     -0.075644119882
 H        -0.068289949971     -2.531240511254      1.075884826112
 H         0.884169337395     -2.580437698065     -0.272504771138
 H        -0.222815669975      2.912713572982     -0.473410905030
 H        -0.061433043215      1.971318966387     -1.989240646808
