25
0488
 O         3.630645512672      1.828317161222     -0.040083457845
 N         3.532300792810      0.725168901705      0.457402570535
 O         4.186936951453      0.216137247256      1.344777884016
 C         2.413563932796     -0.136611217233     -0.156960573308
 C         1.087225692180      0.455852488792      0.132999117670
 N         0.823627068570      1.576688847609      0.729338875337
 N        -0.558103574965      1.645162201890      0.817492040841
 C        -1.003916907267      0.554982562209      0.275146998853
 C        -2.412211021624      0.152975940944      0.052964358605
 N        -2.829293919091     -1.107033609542      0.842840443805
 O        -4.004883518309     -1.188517933515      1.129651432650
 O        -1.930294860711     -1.901714402550      1.054455875599
 N        -2.643573193971     -0.151728951383     -1.449838683103
 O        -2.021910839923      0.573967487134     -2.203180994144
 O        -3.420815226077     -1.045347082414     -1.712889870745
 N        -3.366342202516      1.288627453362      0.467231266426
 O        -4.020755465493      1.800620015799     -0.418601928724
 O        -3.353923081166      1.529881994124      1.657081399451
 O        -0.020962102351     -0.254350600770     -0.187229862059
 N         2.502715595660     -1.557832977870      0.457023041904
 O         1.931412887462     -1.671971190059      1.525296538802
 O         3.138361543678     -2.382958552281     -0.165051665305
 N         2.715616373156     -0.272237796742     -1.665557208086
 O         1.737360590434     -0.439336933254     -2.372375360019
 O         3.887218972592     -0.238841054432     -1.977232241155
