30
0490
 O         3.776365163017      1.038832286557      2.963569686332
 N         3.405981692861      0.638908463694      1.872972779534
 O         2.487141950545     -0.182865391907      1.693687879707
 N         4.133278178604      1.105682145632      0.790662302254
 C         3.606975817942      0.978770513156     -0.405260825970
 N         4.406360745039      1.089078750697     -1.509874573632
 N         3.705279076455      1.033637427713     -2.664826813188
 N         2.484353637179      0.884293908619     -2.363120069520
 N         2.368530004842      0.848237100128     -0.988688367939
 C         1.015294821162      0.794641719320     -0.446284815234
 C         0.492352720442     -0.646948824654     -0.488295794483
 N        -0.885134263794     -0.710020185322      0.011859012543
 N        -1.082740580884     -1.088132921829      1.275061577322
 C        -2.398467117673     -1.040831662664      1.464914609948
 N        -2.986170860846     -1.385236871852      2.747515531213
 O        -2.244169508074     -1.800140757166      3.623919817049
 O        -4.203572543116     -1.218606021526      2.819701344266
 C        -3.081351144492     -0.624688517990      0.314510217438
 N        -4.519045663372     -0.450262982152      0.117132158219
 O        -5.149618756958     -1.460695329417     -0.148609047126
 O        -4.941663817679      0.688972334106      0.237897158217
 C        -2.073792932926     -0.413186436904     -0.609104042227
 N        -2.209917098209      0.021649436604     -1.972652485222
 O        -1.179610408867      0.268981444580     -2.603459435435
 O        -3.357800008330      0.114710080358     -2.391673628908
 H         5.409847154055      1.212097530648     -1.506038947378
 H         1.026700466241      1.167337450675      0.574003327054
 H         0.403493469321      1.439309014167     -1.078612440924
 H         1.079423901799     -1.275896881512      0.177544205401
 H         0.511575905714     -1.027826821759     -1.508250319312
