30
0491
 N        -1.900998829647      0.918224946332     -1.972771569370
 C        -2.122994876905      0.447100698542     -0.718686074651
 C        -3.279754262355     -0.125372975471     -0.167752458845
 N        -4.504146641484     -0.296573309830     -0.858381482577
 O        -5.381461474039     -0.978790612648     -0.340803406150
 O        -4.599528086377      0.256723047115     -1.972947451543
 C        -2.886901322559     -0.540857599107      1.130773132149
 N        -3.707050238939     -1.115122361744      2.194814538074
 O        -4.760703348993     -0.536386874928      2.431569579490
 O        -3.258760567183     -2.097724016700      2.771586128754
 N        -1.632270644348     -0.263239834010      1.389774642415
 N        -1.174094312582      0.355667021810      0.251683830201
 C         0.230218216479      0.690177240036      0.140046063472
 C         0.984567677024     -0.405794702149     -0.632660211520
 N         2.354621649995     -0.007537615702     -0.894708185281
 N         2.765882534280      0.411487955752     -2.129193319858
 N         3.997173320258      0.716956725194     -2.055758835496
 N         4.402790828621      0.511613216898     -0.772548108800
 C         3.381022412245      0.059351740168      0.005194326178
 N         3.213508711490     -0.261753482655      1.269352527437
 N         4.353846241102     -0.149296448505      2.058413567852
 O         5.432858100290      0.226801773893      1.553064858714
 O         4.205751752828     -0.435714052084      3.232656799703
 H        -2.761912029437      1.052430104957     -2.496267132106
 H        -1.176967040799      1.610824570447     -2.108877762682
 H         0.338186332366      1.656868354943     -0.364338834478
 H         0.623087540298      0.780743921163      1.153367742013
 H         0.994996328829     -1.329096259746     -0.048702596625
 H         0.523101465752     -0.593023609999     -1.604028144343
 H         5.346030563787      0.676112438028     -0.443872162123
