28
0493
 N         1.797480005984      3.088270152875      2.104909352419
 N         1.424600949567      2.249307391719      1.445464920614
 N         0.772208475548      1.399925556622      0.794963242313
 C         1.409887167730      0.399585076258      0.086288985564
 C         2.626150753925      0.223164251239     -0.589443146681
 N         3.646592906129      1.202375963160     -0.764744551657
 O         3.568429103153      2.210538125907     -0.048680049675
 O         4.501091828529      0.998984818789     -1.618217607957
 C         2.508234335062     -1.050632582109     -1.194688899561
 N         3.510982717363     -1.809038286164     -1.939159916774
 O         4.630798489422     -1.847160790106     -1.443915256304
 O         3.135555205635     -2.360926841477     -2.964921360254
 N         1.350724103512     -1.621332644248     -0.937285431057
 N         0.695320687320     -0.735571588302     -0.147452429674
 C        -0.667686970862     -1.008043985077      0.282695510458
 C        -1.681528795959     -0.383268550922     -0.691954820076
 N        -3.008376064172     -0.404921960803     -0.122398774977
 N        -3.991353975852     -1.254438853810     -0.570086430006
 N        -5.002951860133     -1.063385363345      0.198661756261
 N        -4.750379026973     -0.116730445415      1.150429298346
 C        -3.506674073268      0.274972196719      0.936741298129
 N        -2.773497196576      1.152659765826      1.704588315667
 H        -0.782239361164     -2.091373252230      0.324485887540
 H        -0.798831176941     -0.589485108838      1.282611989870
 H        -1.396111108305      0.650797182685     -0.916809482533
 H        -1.719710524772     -0.938767072371     -1.630254319995
 H        -3.358719052243      1.664252903526      2.355579803018
 H        -2.139897541659      1.760143939892      1.196792116984
