24
0505
 O        -4.754901750538     -0.422185175761     -0.983448632673
 N        -4.365605585843     -0.247683969026      0.166394957265
 O        -5.051173579374     -0.080520226807      1.164077088242
 C        -2.918263515123     -0.281873072747      0.357547500018
 N        -2.421877661739     -0.961394571734      1.375047654587
 N        -1.097829505469     -0.893557301489      1.207615590179
 C        -0.699497442686     -0.194576379929      0.113339744754
 C         0.704160680980     -0.012337382108     -0.209794222571
 N         1.109096928476      0.391665700378     -1.441657545441
 N         2.431665411674      0.525174056191     -1.578483276657
 C         2.920115981142      0.200365299395     -0.395532928398
 N         4.368296682724      0.129095180420     -0.221717803068
 O         4.783438459080     -0.849241244168      0.390375121961
 O         5.030020774678      1.025790882196     -0.723091337654
 C         1.901415086806     -0.156298851289      0.516621420784
 N         2.096194541923     -0.462810360149      1.906231242126
 O         1.261664841171     -1.185358344407      2.477965788847
 O         3.085115572861      0.006374947486      2.445558753668
 C        -1.902938700267      0.225069765483     -0.484524893624
 N        -2.110174883354      1.085164306662     -1.615974394733
 O        -3.124915505311      1.762849804063     -1.620446791906
 O        -1.259468337424      1.089931217112     -2.522434853325
 H        -0.452218498860     -1.309818065963      1.880774461540
 H         0.467780004472      0.616173786190     -2.204242643920
