21
0509
 C        -3.509705297609      0.531477412470      0.163239333931
 C        -2.083074927330     -0.022021310291      0.218991603667
 C        -1.082807988882      0.967608990251     -0.362364410847
 O         0.277294167938      0.476570413016     -0.240656843457
 C         0.689411714681     -0.383046060738     -1.208692594292
 O         0.023030610325     -0.720461917638     -2.157695403928
 C         2.072021729091     -0.827822109603     -0.926469017932
 N         2.744944456082     -1.551130814096     -1.790786229016
 O         3.956434817963     -1.762249048905     -1.239781928861
 N         4.075929461741     -1.160929733004      0.013865617134
 C         2.911595029777     -0.584061541534      0.218789911836
 N         2.581261600759      0.067992399122      1.372651005465
 H        -4.221067280771     -0.185851775218      0.583882837588
 H        -3.814874143989      0.737263721591     -0.869184946191
 H        -3.600335348075      1.464375300363      0.732624975246
 H        -2.019374603130     -0.957683155793     -0.346366278056
 H        -1.800134614470     -0.245982126306      1.254808120115
 H        -1.287322561643      1.165586087885     -1.417163427260
 H        -1.081091470381      1.909957366530      0.191090122877
 H         3.356921644635      0.363570093516      1.949495496002
 H         1.811043003285      0.716737808382      1.292722055975
