28
0511
 N        -6.255487919085      0.033481035583      0.188708346261
 C        -4.909873933865      0.057679851868     -0.037752732475
 N        -4.033532567595     -0.622831338093      0.682885164954
 O        -2.812219599002     -0.340372112955      0.029784646458
 C        -3.108590154049      0.479290344009     -0.987245533334
 C        -2.013068137216      0.942277081534     -1.823250856352
 N        -2.135803051684      1.959885108778     -2.642589260590
 O        -0.906339758262      2.091453992701     -3.238168357781
 N        -0.005585954926      1.176069575580     -2.780161493578
 C        -0.665934306885      0.457417810255     -1.900294587235
 N        -0.171127619567     -0.676193989964     -1.239652566425
 N         1.064248220605     -0.622379664773     -1.011034974391
 C         1.583082085479     -1.808762341157     -0.474893162318
 N         1.196972010691     -3.019902874056     -0.805383562692
 O         2.048149870932     -3.857347291807     -0.144729986604
 N         2.966396965772     -3.176279816992      0.613567208199
 C         2.706242525021     -1.906853986822      0.410336188665
 C         3.443190886232     -0.827642254269      1.042887198594
 N         3.095103399401      0.426840829979      1.079242704339
 C         4.136221618882      0.984747599569      1.794149317066
 N         4.144053062031      2.311799949546      2.117553039058
 N         5.072496118008      0.131734552424      2.172223834548
 O         4.594029297921     -1.100408660369      1.666986110467
 N        -4.373135488251      0.768530076431     -1.091966773266
 H        -6.764145503714      0.826546772824     -0.176513959771
 H        -6.545836777511     -0.280372846136      1.104664769160
 H         5.038168705834      2.688809482138      2.401839905187
 H         3.612126004800      2.902583114172      1.493309373858
