45
0518
 O        -3.546826192335      1.384781260465     -1.348779521729
 C        -2.738911233494      0.499638542102     -1.194235552178
 N        -3.034437425373     -0.767995366739     -0.804432020596
 C        -4.381204896956     -1.135924742137     -0.469483994510
 C        -4.909542572010     -0.562434385958      0.862978041977
 N        -5.475544914040      0.866858155505      0.715510788343
 O        -6.331007596776      0.939435022776     -0.150645702485
 O        -5.087641411637      1.729838520343      1.471238777893
 N        -3.857796981242     -0.635449011959      1.950772619660
 O        -3.990447326599     -1.518369289175      2.782929491704
 O        -2.931634552677      0.154014975042      1.849067137141
 N        -6.124815465043     -1.372740619534      1.372719290095
 O        -6.790585811226     -0.819498552303      2.227561853657
 O        -6.294632197643     -2.478523139369      0.889650240307
 N        -1.303534822331      0.666013935997     -1.368348785137
 C        -0.445022512617      0.737785861096     -0.192882606790
 N         0.801442502226      0.002629934437     -0.405976812268
 C         2.045110034633      0.745307070068     -0.323615784982
 O         2.023676125957      1.848063580154      0.180689975923
 N         3.139511349798      0.163500939541     -0.874220636813
 C         4.422168519331      0.787816872558     -0.708923069491
 C         5.233041623739      0.200662729281      0.457423244551
 N         6.634770822463      0.826561406830      0.481313722409
 O         7.562426763337      0.103292595082      0.792824550022
 O         6.670167444770      2.007160721631      0.176769535210
 N         5.418215669722     -1.314275603553      0.334552613498
 O         5.361152666235     -1.751957674379     -0.808756322613
 O         5.631638607783     -1.929898361559      1.358037542701
 N         4.574862890279      0.460704570135      1.811040006619
 O         3.541438414352     -0.161722954484      1.996949821944
 O         5.113518915824      1.263689149411      2.548059554717
 N         0.711607769878     -1.381482255529     -0.433254272843
 O         1.717541830640     -2.039230989184     -0.679738803108
 O        -0.397397748440     -1.863744648833     -0.205850257847
 N        -0.916878561786      1.481307324332     -2.461966049583
 O        -1.658133876158      1.474616700092     -3.425530085589
 O         0.163718955420      2.047564878199     -2.349427909741
 H        -2.276597813800     -1.432121588228     -0.696806807313
 H        -5.083194629464     -0.797941129141     -1.236424883780
 H        -4.444032152323     -2.220350840500     -0.386355499862
 H        -0.143663787468      1.760256846348      0.025753298841
 H        -0.995974352721      0.321403434455      0.647440516461
 H         3.085030613161     -0.799328527169     -1.182950941923
 H         5.020643933911      0.657795639531     -1.612195845549
 H         4.288073380703      1.852289014323     -0.520080456942
