22
0520
 C        -4.727603134218      0.606669714712     -0.050198599937
 N        -5.124292523258     -0.654526607547      0.347902346229
 N        -4.224322061304     -1.488495246696      0.785902579866
 C        -2.951001995693     -1.056979364684      0.827803138361
 N        -1.846429140622     -1.693893183420      1.234913397120
 N        -0.820980833611     -0.850882627760      1.055824287521
 C        -1.267196337590      0.310141598784      0.539347484417
 N        -0.591367332069      1.518667690720      0.423252711949
 N         0.627899094106      1.566826900933      0.108516286744
 C         1.276554282140      0.479592082003     -0.464131424624
 N         0.806361889698     -0.385049489598     -1.383450868531
 N         1.813149576633     -1.118537278602     -1.876054128009
 C         2.930083032923     -0.711145114178     -1.261261085775
 N         4.193044038541     -1.154740114525     -1.393389399901
 N         5.109777291091     -0.572495426075     -0.673746105884
 C         4.740108902019      0.449148872806      0.178340045457
 N         3.543773069784      0.941740837853      0.387815627278
 N         2.623558976156      0.324334187589     -0.377783291986
 N        -2.616982856711      0.230441976584      0.406277396997
 N        -3.519424730232      1.114548054623     -0.060715078329
 H        -5.522840498341      1.252286306102     -0.403663310700
 H         5.548231290558      0.892146230377      0.748297991736
