26
0523
 N         8.019174819086     -0.033691989053      0.415333968378
 N         6.924016286543     -0.069365265259      0.696674341883
 N         5.779646413089     -0.061706323136      1.206144899467
 C         4.729546435097     -0.332546071786      0.345471124645
 N         5.052742476059     -0.584826140109     -0.987253181818
 N         4.102091902667     -0.847678981325     -1.826637263479
 C         2.844289529479     -0.865282584001     -1.354360231701
 N         1.692705649155     -1.111361820780     -1.996146683597
 N         0.712163481592     -0.981123390624     -1.100122343138
 C         1.233925110976     -0.653587284791      0.103445597460
 N         0.606575719434     -0.654232247090      1.341360571827
 N        -0.588995101697     -0.277691288830      1.476396396463
 C        -1.230413966318      0.471272929189      0.499887821586
 N        -0.721161942536      1.464069084161     -0.263717858136
 N        -1.711390673822      2.108138317560     -0.884917248050
 C        -2.856574566284      1.518929450168     -0.510738642054
 N        -4.119811628886      1.787302859632     -0.881756093786
 N        -5.061868442422      1.065521156221     -0.363160526590
 C        -4.724427392964      0.057132862680      0.538793240039
 N        -5.765673868415     -0.684377614271      1.070513478022
 N        -6.915758780744     -0.373013035717      0.683786010848
 N        -8.014212915882     -0.234525933569      0.451381715244
 N        -3.522686345114     -0.289432240588      0.951115726571
 N        -2.582464884612      0.494273246470      0.390262575058
 N         2.584457024364     -0.599336082926     -0.013206324143
 N         3.534005662154     -0.312861612227      0.897348928999
