30
0524
 O        -3.813846889309      1.617110018300      1.915280172574
 N        -2.784105549892      1.157689301581      2.417470037442
 O        -2.349984326606      1.431384015780      3.537242950952
 C        -2.029490113389      0.231178215985      1.633459557861
 C        -0.821227610709     -0.414164837849      1.980331202920
 N        -0.409677944028     -1.187617473277      0.985099136765
 N        -1.344738764770     -1.029206292939      0.006528248591
 C        -1.186580760093     -1.762145349862     -1.246381680081
 N         0.153781956514     -1.690009697098     -1.773052102779
 C         0.712674020356     -0.439999205251     -2.255465481385
 N         1.020735616761      0.536473800351     -1.228271027546
 C         2.096130649729      0.586283853282     -0.409300381941
 C         1.845460880880      1.639959236871      0.448141317614
 N         2.702412285534      2.091817849605      1.500841378493
 O         3.773612684151      1.500616076661      1.653900453506
 O         2.303466330962      3.040054759201      2.179382030014
 C         0.584791099131      2.166148440954      0.082500615668
 N         0.082286750237      1.490038318431     -0.939152547603
 N         1.077317369407     -2.634473014471     -1.263056626705
 O         2.263261237429     -2.370298633460     -1.426969537531
 O         0.616959084692     -3.645885070873     -0.764900237683
 C        -2.335471084007     -0.180958130425      0.349198577237
 H        -0.258827331459     -0.331768419295      2.898470262192
 H        -1.869924786857     -1.322106686743     -1.974624866283
 H        -1.428105188491     -2.812967548919     -1.096556145920
 H        -0.035443873870      0.022127212142     -2.899576433516
 H         1.610129659141     -0.667163757818     -2.824850900168
 H         2.919754192672     -0.106080653215     -0.471668639881
 H         0.055689956027      2.997543085577      0.524067518440
 H        -3.151339550139      0.086620586775     -0.303486851248
