7
001CID6375
 O        -0.686317711906     -1.039597540977     -0.285843580850
 O        -0.664820937139      1.050472029671      0.279578738402
 N        -0.123835615350     -0.000851844901     -0.001750176512
 C         1.373769287675     -0.017129419479      0.002280099289
 H         1.774292323474      0.723337321342     -0.712346114939
 H         1.763682237918     -1.013821704358     -0.269033531162
 H         1.764430415331      0.253291158699      0.999114565774
