12
004CID20120
 O         1.296052944891      1.074069753641     -0.099061325689
 O         1.265004591252     -1.104843304761     -0.169059835180
 N        -0.667196045809      0.015475371203     -0.230809280949
 N         0.732443312647     -0.007877238957     -0.124710050522
 C        -1.342350598258      1.264697122245      0.212750604664
 C        -1.378040034625     -1.239910720277      0.132289321248
 H        -0.738897516819      2.150788052193     -0.071818202002
 H        -1.520236000960      1.303926418597      1.298895030476
 H        -2.308905584763      1.338440780899     -0.315594675491
 H        -1.557964335798     -1.343678592916      1.213839752544
 H        -0.799792461187     -2.122731089077     -0.209105034858
 H        -2.345818270571     -1.252056552788     -0.398816304243
