20
006CID61232
 O        -0.758687196497      2.310224310574      0.564574757289
 O        -0.875360870701     -0.666391506289     -2.240785561155
 O        -0.783812901034     -1.609167460810      1.740004012525
 O         0.875380236057      0.666410792127      2.240775788619
 O         0.758707706504     -2.310204466426     -0.564584107279
 O         0.783833202285      1.609187091718     -1.740014368703
 O        -2.244255153914      1.047993405351      1.539247707559
 O        -2.329449429934      0.806556839872     -1.558014678820
 O        -2.319744048861     -1.755770477264      0.200669909893
 O         2.329470092492     -0.806536037429      1.558004391023
 O         2.244274745714     -1.047973309675     -1.539258162570
 O         2.319763642329      1.755790862490     -0.200679640481
 N        -1.323093612058      1.281752737696      0.812184105941
 N        -1.400152607595      0.061231940576     -1.445313040168
 N        -1.361734988626     -1.284437012589      0.740916939944
 N         1.400172623072     -0.061211913886      1.445303027320
 N         1.323113634908     -1.281732775902     -0.812194068919
 N         1.361754938577      1.284456994456     -0.740926974287
 C        -0.763533911317      0.010947745194      0.020144827505
 C         0.763553898599     -0.010927759784     -0.020154865236
