20
011CID20124
 O        -2.956103776719      1.090526278730      0.654910038202
 O         2.955877242841      1.090527960666     -0.655174680082
 O        -2.956122390987     -1.090651288624      0.654817956126
 O         2.955858947237     -1.090643101514     -0.655266060022
 N        -1.376174672191     -0.000027658514     -0.490183959303
 N         1.376340109008     -0.000092343534      0.490457828942
 N        -2.499390407190     -0.000054112782      0.363757431969
 N         2.499251944330     -0.000065944142     -0.363941656631
 C         0.560636557124     -1.250451786074      0.526199558975
 C        -0.560533958255     -1.250409233042     -0.526036556054
 C         0.560657832664      1.250277975088      0.526304825459
 C        -0.560512744911      1.250343094382     -0.525931218146
 H         1.223469126851     -2.141229948879      0.386678235669
 H         0.147660444521     -1.330014515967      1.559917794323
 H         0.147683132997      1.329760722750      1.560029779705
 H         1.223505554038      2.141056597731      0.386858437062
 H        -0.147552130607     -1.329902638273     -1.559759982827
 H        -1.223378758169     -2.141189389626     -0.386585125767
 H        -1.223342425787      2.141122740620     -0.386404680353
 H        -0.147529626789      1.329916604002     -1.559647967245
