16
017CID7423
 O         2.851659606108      0.605171130810     -0.010940532390
 O         2.291991234589     -1.482225424052      0.037942123502
 N         2.024366716206     -0.291593168141      0.007795284654
 N        -2.733584486657     -1.538912832319     -0.159341779890
 C         0.585861216349      0.094801186232     -0.003406103627
 C        -1.739340176912     -0.548704626133     -0.037083688676
 C        -0.377146797123     -0.916148303260     -0.025794257150
 C         0.247180899163      1.450916906441      0.012385247439
 C        -2.098685851978      0.821488602061     -0.015987289664
 C        -1.109351117510      1.800073261973      0.004473572167
 H        -0.070162410415     -1.964720999357     -0.045914214028
 H         1.027123660318      2.215960220738      0.028820675454
 H        -3.148619520727      1.109206074712     -0.029718212630
 H        -1.390553426614      2.854996167077      0.014844271016
 H        -3.667642198600     -1.292972168470      0.132242358300
 H        -2.478097346196     -2.482636028312      0.093082545526
