16
018CID7475
 O         2.720339398553      1.105878516873     -0.046288787581
 O         2.735906069128     -1.055640423375     -0.069488606402
 N         2.154946601176      0.020876868125     -0.047237623186
 N        -3.478818725841     -0.021066543160      0.080455754399
 C         0.695731311500      0.010083512886     -0.020732845734
 C        -2.096492488014     -0.010561851429      0.029254393645
 C        -0.012846989387      1.229885412814      0.005198053180
 C         0.004796950195     -1.220071700364     -0.021097565156
 C        -1.396016188881      1.227416758903      0.028298221136
 C        -1.378260782094     -1.238018766986      0.001836478594
 H         0.548270318240      2.172527713476      0.005632541866
 H         0.579431176148     -2.154327732981     -0.040808003541
 H        -1.942717358475      2.166537661098      0.050151637458
 H        -1.911377531486     -2.185168045122      0.003444389002
 H        -4.008151822198      0.830610963947      0.028265494680
 H        -3.995839938616     -0.878962346746      0.009916467710
