14
019CID69319
 N         1.578656979374     -0.501532725338     -0.214531296855
 N         2.475157040827      0.370940995001     -0.173642831402
 N         3.431020975566      0.984540716294     -0.174205534425
 C         0.181952227880     -0.237266708633     -0.051753582778
 C        -0.364863629727      1.036711505146      0.175145976642
 C        -0.642010589204     -1.378451745831     -0.136540638280
 C        -1.750702499253      1.161508163735      0.317501875191
 C        -2.019262934432     -1.226427075306      0.008838346516
 C        -2.577394905753      0.039032332882      0.235570103876
 H         0.263241917274      1.920076156488      0.241655295234
 H        -0.198977891435     -2.358931815651     -0.313170416879
 H        -2.184301219101      2.146231485054      0.493869564288
 H        -2.667392447571     -2.101168377494     -0.054660475971
 H        -3.654623024446      0.144637093651      0.347423614844
