28
028CID357114
 N         1.976979901645      0.950563876401      0.001733527518
 N         3.010327626921      0.266270488941     -0.000437143937
 N         4.059743260405     -0.178346084405     -0.001978746320
 C         0.588022750607      0.389707361738      0.000681887026
 C        -1.146724020369     -0.922410636122      1.259482302466
 C        -1.798290260747      1.167474632147      0.003593084937
 C        -1.147571424390     -0.915565081831     -1.264053230752
 C         0.329346972217     -0.467139222337      1.265701657724
 C        -0.328259283662      1.637276986601      0.004373883868
 C         0.328495797832     -0.460263939758     -1.268793898423
 C        -2.068826504883      0.315823254658      1.262816347947
 C        -1.419585497992     -1.766313822938     -0.004492500147
 C        -2.069673746745      0.322666956854     -1.260050102155
 H        -1.343599946729     -1.535975525299      2.167020762422
 H        -2.465632304238      2.058332329072      0.006233807687
 H        -1.345057959720     -1.524197629193     -2.174774676947
 H         0.545571796630      0.119926810968      2.176676082321
 H         0.997085884752     -1.343997520483      1.297733653602
 H        -0.118125489846      2.273197034691     -0.875032683866
 H        -0.117533888353      2.268417149379      0.887076060003
 H         0.996211902172     -1.336933857921     -1.306031683971
 H         0.544110190019      0.131736573940     -2.176714674318
 H        -3.127170842462      0.003070612735      1.291890913054
 H        -1.900577416539      0.916415513239      2.173892761144
 H        -0.786473426516     -2.670391636762     -0.007157619829
 H        -2.464220723709     -2.124012937323     -0.005112028718
 H        -3.128037936588      0.010074751114     -1.290110242692
 H        -1.902035409711      0.928193561888     -2.167967499642
