7
031CID12231
 O        -0.485518626637     -0.489194817524     -0.011735195044
 O         1.618397100098     -0.120533554388     -0.006189640306
 N         0.571628663219      0.416655938229      0.004212445952
 C        -1.769650825483      0.197654376421      0.001524723879
 H        -2.478036561773     -0.639965836842     -0.013260547724
 H        -1.875402521502      0.821737321355     -0.890148976441
 H        -1.874317227922      0.788946572750      0.915397189685
