9
033CID61172
 O         1.314424807703     -0.138754468098     -1.130405594947
 O        -1.247369708693      1.468556797595     -0.084085973777
 O         2.164220563555      0.461653354826      0.777704981409
 O        -2.164894816268     -0.501436909245     -0.055718437760
 N         1.282383430906      0.050378803260      0.061442430076
 N        -1.264774030187      0.281589121372      0.135243303122
 C        -0.015187868465     -0.316067109761      0.780414307530
 H         0.041325003449      0.028091749261      1.845473082097
 H        -0.110127381999     -1.432411339212      0.807931902253
