16
038CID10996
 O        -1.407679269509      0.753413830437     -0.181525339795
 O        -2.674806956205     -0.916093081840      0.228150937338
 N        -1.720033373738     -0.342189956871      0.610299449132
 C         1.014927889427      0.849637932043     -0.453097605893
 C         1.654013979970     -0.319180136696      0.307376163889
 C        -0.191016503715      1.435636283386      0.273274336746
 C         2.839231400846     -0.904893028844     -0.455176471905
 H         1.767439357007      1.644551188630     -0.625002520855
 H         0.701015753472      0.513897743177     -1.464543290093
 H         0.896247299158     -1.109176807649      0.485914383957
 H         1.982498295972      0.015652906055      1.310905066834
 H        -0.110497970102      1.384660017046      1.371210182878
 H        -0.409325051003      2.474622958645     -0.038783634089
 H         2.539331745660     -1.287537973250     -1.437930668614
 H         3.626293945148     -0.160316778980     -0.619357751997
 H         3.288627507610     -1.739951515288      0.095121842469
