16
039CID11672
 O         1.537846670520      1.036712837007      0.006271433273
 O         1.467261988106     -1.121752449766     -0.007336965455
 N         0.937718574761     -0.022772763028     -0.000280135952
 C        -0.627666510614      0.009839767230      0.000282793590
 C        -1.081278144115      1.465712265682      0.009547544186
 C        -1.068025476188     -0.714465631904     -1.271120148654
 C        -1.067443278827     -0.730408899665      1.262672809343
 H        -0.711957807715      2.019856896363     -0.865321819176
 H        -2.175172683988      1.536968976525      0.010251297627
 H        -0.711547396864      2.008806746358      0.891147336489
 H        -0.655836245341     -1.734155171335     -1.324360702560
 H        -0.755444154980     -0.188595889375     -2.182324333760
 H        -2.160790180379     -0.805636425930     -1.311035193075
 H        -0.754438785807     -0.216048059274      2.180278595068
 H        -2.160190095612     -0.822074238777      1.301941355635
 H        -0.655236472954     -1.750687960166      1.302886142624
