19
040CID143467
 O         1.452485801583      1.300785406875      0.413238444107
 O        -1.979097365749      0.613745558585      0.208403389559
 O         0.927190113816     -2.621856417662     -1.145226193498
 O         3.410962254779      0.645886886063      1.290776549177
 O        -2.020720409358      1.223300523600     -1.951401726839
 O         3.302361960980      2.216493625336     -0.244927108465
 O        -1.817364282787      2.704438879942     -0.334421497357
 N         1.529492413750     -1.733788805943     -0.287724122229
 N        -0.422251086525     -2.366324291541     -1.228961051159
 N         2.888140918650      1.379960117447      0.499290911671
 N        -1.928090155470      1.624756195075     -0.827668702013
 C         0.588665973795     -0.911976123608      0.182367198244
 C        -0.690885084309     -1.327628382545     -0.434652198029
 C         0.809479374007      0.219432865588      1.126025007998
 C        -2.051558776510     -0.761532056054     -0.218866131971
 H        -0.150321483308      0.694373197819      1.444390725582
 H         1.400482394211     -0.086535179887      2.017476113669
 H        -2.690556405408     -0.862774739658     -1.125487735737
 H        -2.560116156145     -1.235957259434      0.653168127290
