19
041CID23506
 O         1.789420277722     -1.009030709513      1.098101801392
 O         1.812715898338      1.157846498253      0.886339639981
 N         0.489365143296     -0.052624957742     -0.451953820207
 N         1.403496872181      0.041345514359      0.610170395505
 C        -2.423472438514      0.018806697258     -0.041457809636
 C        -1.603230511573     -1.226876997197      0.316347872661
 C        -1.576146029489      1.292436443434      0.070143265680
 C        -0.320712066814     -1.311312516430     -0.521869236010
 C        -0.293867548515      1.185679024143     -0.765892377291
 H        -2.827927152503     -0.077163143415     -1.067972061876
 H        -3.303863606269      0.093475839110      0.625751651492
 H        -1.349482944295     -1.217905841870      1.395607871373
 H        -2.207781547981     -2.141228981658      0.160717657905
 H        -2.161410841747      2.172028184466     -0.260803466360
 H        -1.320401512446      1.487159246523      1.131250341190
 H         0.307959587628     -2.175076535575     -0.199195379444
 H        -0.554858768065     -1.465091164944     -1.599686623845
 H        -0.526928925621      1.132852944728     -1.853575544320
 H         0.353726114861      2.081980474000     -0.615224179940
