13
042CID11473
 O         2.734821172188      0.706226387608     -0.117367358655
 N         2.050821797121     -0.266264055591     -0.126346183634
 C         0.607213334544     -0.106347927660     -0.043782372817
 C        -0.038602763209      1.140849311004      0.047096841171
 C        -0.140896800605     -1.296628027663     -0.059412882548
 C        -1.429732021447      1.193790706295      0.122017565093
 C        -1.534486369975     -1.232072720274      0.016168787139
 C        -2.176013227431      0.007976674795      0.106496668966
 H         0.560202395788      2.054331150255      0.057806769801
 H         0.368710505713     -2.259900413475     -0.130167205821
 H        -1.936836045763      2.155276486715      0.192558912355
 H        -2.121907046307     -2.149453655556      0.004686119472
 H        -3.264094930618      0.052616083546      0.165244339481
