19
044CID136409
 O         1.703384743110     -1.563975820162      1.832249028711
 O         2.386288119339      1.914585650804     -0.005018625893
 O         1.719674696348     -1.838912936858     -0.320864961251
 O         1.509791678311      0.822356959697     -1.661452806943
 N         1.511739012575     -1.211711453311      0.689999709301
 N         1.679347206979      1.057103395926     -0.490786198213
 C         0.918300214818      0.210593250472      0.558191862315
 C        -0.544745680712      0.117738684716      0.228241455150
 C        -1.483596942388      0.624813442731      1.140317670109
 C        -0.970114853879     -0.472360059508     -0.971669207840
 C        -2.846124701476      0.540319469910      0.845755136562
 C        -2.334940647976     -0.551629211920     -1.257846277627
 C        -3.272541195890     -0.046703775422     -0.351283276308
 H         1.078941148182      0.720798867583      1.559066155527
 H        -1.159500824209      1.081598481905      2.075500839616
 H        -0.230990010813     -0.861187753066     -1.681579999736
 H        -3.578743410239      0.932756135285      1.551245148472
 H        -2.666333695695     -1.008410096000     -2.191116149599
 H        -4.337634856387     -0.110173232783     -0.576749502354
