5
046CID297
 H         0.002019932438      0.001536931094      0.002021233786
 C        -0.012700000021      1.085799999967      0.007999999989
 H         1.004615469379      1.461151998164      0.000323912883
 H        -0.537156955608      1.445022865784     -0.870511648065
 H        -0.520278445167      1.435488206582      0.900166501928
