6
050CID6325
 C        -0.663628966201      0.000005972162     -0.000000289246
 C         0.663662841201     -0.000005972162      0.000000289246
 H        -1.260120518359     -0.899630699173      0.068561882430
 H        -1.260104266802      0.899653379029     -0.068562980868
 H         1.260154393359      0.899630699173     -0.068561882430
 H         1.260138141802     -0.899653379029      0.068562980868
