6
055CID887
 O         0.699072583678      0.003183961898      0.001093897643
 C        -0.734630139938     -0.020432818207     -0.006909686233
 H        -1.107885705911     -0.775914333258      0.691356674321
 H        -1.107873996040     -0.196491420514     -1.020487676070
 H        -1.011635518328      0.986037902634      0.333757356759
 H         1.047052776538     -0.861883296339     -0.291710555231
