9
066CID6351
 C         0.321754021463      0.814103275867      0.000015386264
 C        -0.865927796234     -0.128394859131     -0.000015405408
 C         0.544140435759     -0.685708416667      0.000000015927
 H         0.549217265183      1.389587028759     -0.894081881131
 H         0.549188798443      1.389564463972      0.894134418496
 H        -1.478040331077     -0.219165732724      0.894081847038
 H        -1.478011834914     -0.219143225922     -0.894134449986
 H         0.928803988915     -1.170409978711     -0.894108113319
 H         0.928775452462     -1.170432555445      0.894108182122
