11
067CID6334
 C         0.000006093994     -0.570564194699     -0.000011165874
 C        -1.267310577833      0.282545195614     -0.000009249650
 C         1.267306030435      0.282570014970      0.000017579947
 H         0.000003287878     -1.238377322266      0.884137810551
 H         0.000022001670     -1.238345571337     -0.884184119151
 H        -1.314824852224      0.930652883757      0.882326665520
 H        -1.314803919354      0.930687966066     -0.882320527187
 H        -2.167293771377     -0.341651892518     -0.000032352863
 H         2.167301463182     -0.341609424220      0.000016994426
 H         1.314787247647      0.930681103369      0.882352783267
 H         1.314806995984      0.930711241264     -0.882294418988
