10
069CID10419
 C        -2.037135027396     -0.000152478351      0.000010415531
 C         2.037155031910     -0.000267516963      0.000049586089
 C        -0.603683510106     -0.000193026109      0.000024175570
 C         0.603703509798     -0.000227178732      0.000035824950
 H        -2.441501599724      0.108077419440      1.021259097417
 H        -2.441465564148      0.830180378015     -0.604339706676
 H        -2.441517434688     -0.938680930137     -0.416899789874
 H         2.441492493205     -0.938856133471     -0.416768751777
 H         2.441508107048      0.108031088541      1.021296327132
 H         2.441543994102      0.829988377766     -0.604367178362
