10
071CID135973
 C         0.000012591086      0.752431149873     -0.405437393017
 C        -0.000024311366     -0.752477528491     -0.405305489270
 C         1.149524177427      0.000006291428      0.252532610946
 C        -1.149515526075      0.000062658907      0.252568201850
 H         0.000022344646      1.573722560300     -1.075224207003
 H        -0.000054812275     -1.573886355204     -1.074948299687
 H         2.119701297548     -0.000060677903     -0.239992996585
 H         1.263360173265      0.000098345776      1.334447932180
 H        -1.263318050868      0.000160267122      1.334487041371
 H        -2.119707883389      0.000043288192     -0.239927400786
