10
072CID69972
 C        -0.753740480424      0.783719670474      0.000149761032
 C        -0.752480627166     -0.784908972085     -0.000122235159
 C         0.764955095588      0.672687527680      0.000120478530
 C         0.766034636820     -0.671437469882     -0.000112709693
 H        -1.190659149301      1.247038040136      0.889474384679
 H        -1.190670829392      1.247346347274     -0.889008441554
 H        -1.188666071103     -1.248928584007     -0.889441175749
 H        -1.188654112698     -1.249236889755      0.889041647323
 H         1.492880795747      1.445479829456      0.000249755812
 H         1.495200741929     -1.443059499290     -0.000251465222
