14
075CID7843
 C        -0.567633069348      0.517024775843     -0.001191354670
 C         0.567633069327     -0.517081919080     -0.001218992741
 C        -1.941144777104     -0.150140276612     -0.001213583132
 C         1.941144777326      0.150083134008     -0.001228635048
 H        -0.471714032785      1.178302881268     -0.884142461547
 H        -0.471717442324      1.178251567515      0.881798479601
 H         0.471727117268     -1.178345287304      0.881744501033
 H         0.471704358114     -1.178323448739     -0.884196440281
 H        -2.081912913015     -0.783616297935     -0.884286926783
 H        -2.081894892939     -0.783713325246      0.881793058439
 H        -2.743688240722      0.595689317586     -0.001164166227
 H         2.081903238628      0.783595729851     -0.884277282915
 H         2.743688241194     -0.595746461452     -0.001218900498
 H         2.081904566378      0.783619610298      0.881802704767
