14
076CID6360
 C         0.000006231422     -0.000012035968     -0.362543186936
 C        -0.537346230169      1.354701908089      0.118314545771
 C         1.441891672742     -0.212018543062      0.118330800625
 C        -0.904547760648     -1.142728135950      0.118292470654
 H         0.000021185128     -0.000004049897     -1.481283163503
 H        -0.560662132820      1.413243751636      1.211662942766
 H         0.085525213734      2.180418339087     -0.240373375104
 H        -1.556796231453      1.529037071185     -0.240519879331
 H         1.504227165509     -0.221141209352      1.211680082794
 H         2.102596274910      0.583702829255     -0.240458938065
 H         1.845559752966     -1.164281956112     -0.240388874544
 H        -0.943655447864     -1.192158196301      1.211639981116
 H        -0.545765478996     -2.112771172593     -0.240490133802
 H        -1.931054214461     -1.016188600017     -0.240463272441
