13
077CID9088
 C         0.000007691663      0.000030768153     -0.000007693143
 C        -1.283515990021     -0.516196517852     -0.563159046531
 C        -1.283505845660      0.516255718402      0.563168916499
 C         1.283520708024      0.563195883999     -0.516246476769
 C         1.283531892892     -0.563132015756      0.516205831930
 H        -1.592233235047     -1.537622127102     -0.351802975703
 H        -1.592246283777     -0.216974802545     -1.562378731841
 H        -1.592229092697      1.537680770116      0.351818929938
 H        -1.592215942428      0.217033438917      1.562394673703
 H         1.592231055625      0.351843098441     -1.537674852446
 H         1.592242975536      1.562418882013     -0.217027556745
 H         1.592250097151     -1.562354455280      0.216980857624
 H         1.592261967274     -0.351778635691      1.537628124232
