7
079CID6329
 N        -0.749990428417      0.000169267365      0.002149745741
 C         0.737707915727      0.002219790107      0.024717562119
 H         1.191227966521      0.091983514962      1.022456833004
 H         1.106584162730      0.835103380717     -0.597606611638
 H         1.106607502823     -0.928352420757     -0.438964169582
 H        -1.105529551559      0.855841745090      0.417896322475
 H        -1.105507567825     -0.767565283487      0.563950318419
