8
082CID7865
 O         0.606417412422     -0.590945516873     -0.197730080998
 O        -1.275593040918      0.517691957159      0.396606177948
 C         1.405248466461      0.612683504580     -0.051134943295
 C        -0.738343327695     -0.504436961301      0.048867209727
 H         2.389926803868      0.231756219441      0.238280321943
 H         0.981402011597      1.272303154565      0.715339953910
 H         1.430973320734      1.111637048636     -1.024428565096
 H        -1.156031646467     -1.498089406208     -0.126000074139
