8
084CID9033
 N        -0.000764745073      0.865474155400     -0.003405987621
 C        -0.757081838098     -0.421087713806     -0.017783468746
 C         0.758002774506     -0.419643912442     -0.017796788280
 H        -1.310453250804     -0.745974878487     -0.898367822475
 H        -1.305307707919     -0.649193195439      0.902018589189
 H         1.306678553920     -0.646704115787      0.901995632613
 H         1.311976918085     -0.743475845251     -0.898390860033
 H        -0.001250707704      1.367205505812     -0.893369294646
