5
088CID10038
 O         1.233077766586      0.000055215395      0.000122683868
 C        -1.235877625921      0.000036033782     -0.000360248102
 C         0.068226351755      0.000046194258     -0.000105100505
 H        -1.841008283821      0.768793567423      0.454383437996
 H        -1.840818208597     -0.768730997490     -0.455340777288
