7
090CID177
 O         1.142700172837      0.237221039219      0.000779125208
 C        -1.239705529192      0.171258077237      0.000015212181
 C         0.134377373434     -0.431108193814     -0.000200377028
 H        -1.815557308750     -0.133582685709      0.883477831084
 H        -1.200743141259      1.271416566014      0.001156669907
 H        -1.815038453874     -0.131766471886     -0.884409763927
 H         0.168566886805     -1.532738331061     -0.001318697426
