9
092CID702
 O        -1.208017793398      0.240427143569     -0.017543182070
 C        -0.028706913421     -0.577738582945      0.034648857506
 C         1.235599522540      0.267231273469      0.016311462437
 H        -0.087526084241     -1.220073455340      0.931874918829
 H        -0.132825453629     -1.199600493998     -0.875611174858
 H         2.130261231040     -0.351674429885     -0.117599611962
 H         1.210694490249      0.990810245069     -0.810150559576
 H         1.366519263575      0.837193634336      0.942438083001
 H        -1.196898262716      0.907924665724      0.693331206691
