7
094CID7855
 N        -1.776105716338     -0.192633519824      0.000000000000
 C         0.717741289564      0.498455720002      0.000000000000
 C         1.712124407162     -0.390150177457      0.000000000000
 C        -0.659907800252      0.109736751273      0.000000000000
 H         0.885925471796      1.582435911515      0.000000000000
 H         2.756954183286     -0.102747964591      0.000000000000
 H         1.560368164783     -1.463796720920      0.000000000000
