8
096CID176
 O        -0.356227131660      1.178025022690      0.423801224123
 O        -0.964325832300     -0.678494378167     -0.667092077788
 C         1.369960562402     -0.351498643274     -0.013990546270
 C        -0.075223769882     -0.043279163016     -0.152883662325
 H         1.839823023821     -0.484882278608     -1.002305595263
 H         1.920889757547      0.443562177261      0.515593182062
 H         1.519352046723     -1.291636224198      0.542014246288
 H        -1.316448656651      1.425303487310      0.353563229172
