10
101CID8027
 N         0.003289114600     -1.193446569495      0.000006512828
 C        -1.137882739954     -0.382610342300     -0.000024773659
 C         1.139979390259     -0.376339608990      0.000007651982
 C        -0.715497870627      0.946669012331     -0.000058569078
 C         0.710282224390      0.950594048146     -0.000031196466
 H         0.006040348579     -2.192839672957      0.000025254517
 H        -2.132377976610     -0.784256525149     -0.000023933880
 H         2.136670920424     -0.772504261902      0.000034184745
 H        -1.342445879040      1.814535107301     -0.000095172289
 H         1.332442467981      1.821898813014     -0.000039958701
