7
001CID6375
 O        -0.672214783232     -1.077603576520     -0.145120472031
 O        -0.633005455865      1.087512787298      0.149784759510
 N        -0.095460741134     -0.003887431739     -0.008465145364
 C         1.403041474166     -0.018385229998     -0.005222224548
 H         1.741009224141      0.798558909386     -0.642215595930
 H         1.737341177179     -0.990381813133     -0.360797889228
 H         1.720489104747      0.159886354704      1.024036567592
