20
007CID4510
 O        -0.110150572576     -1.270810961905      0.531920812916
 O         2.358795898252     -0.201304458141     -0.280721806055
 O        -1.545396096184      1.187657619872      0.128615607232
 O        -0.941693685695     -2.794506288141     -0.920740964497
 O        -0.723856676137     -3.257365588415      1.210461455109
 O         3.348421752660      1.712470656220      0.374801590919
 O        -3.395502577192      1.706370941592     -1.047295802583
 O         4.517337143284     -0.119001009980      0.068195292046
 O        -2.976871752153      2.662936570589      0.882913504216
 N        -0.642504915768     -2.563692875712      0.233621375922
 N         3.513639364044      0.543912516928      0.093630683461
 N        -2.760237404253      1.918811301122     -0.036491719534
 C         0.042066376852     -0.406439513374     -0.613654861001
 C         1.146647070505      0.569421479961     -0.233206976460
 C        -1.265632834993      0.292461219918     -0.961406495125
 H         0.349549892556     -1.003115224207     -1.475606304848
 H         0.987420637774      0.980502276045      0.764777545782
 H         1.190127415922      1.390933265542     -0.954772447558
 H        -2.070661236287     -0.435013941834     -1.080068110053
 H        -1.157097800611      0.853872013921     -1.894672379887
