30
012CID140617
 O        -2.307553656661      2.259543993524      1.508806068915
 O        -3.799844026533     -1.138135284013      0.856931270370
 O        -0.860605465185     -0.121458937928     -1.711665112686
 O         0.770259168599      1.924662637408      0.213237765134
 O         1.958533166323     -1.016088818966     -1.815180519148
 O         3.683507585243      0.454564376665      2.039343257565
 O        -4.016636537076      1.735859053997      0.249024937293
 O        -3.533896923063     -0.898885799696     -1.305221749227
 O        -1.667619993909      1.904108519699     -1.498043390277
 O         2.035471617460      1.690134749368     -1.558520915351
 O         3.686064721115     -1.522822143276     -0.560125709337
 O         4.321262832125      1.255507701464      0.102474686371
 O         0.896881469431     -2.840759706860      0.200319186732
 O        -1.274878285424     -2.533445008437      0.147005521671
 N         0.040412319307     -0.852363677633      0.762997661317
 N        -2.903940949615      1.563048992843      0.704587188098
 N        -3.262519989602     -0.691340959654     -0.142933959947
 N        -1.499590888972      0.749924451318     -1.147157601968
 N         1.621755714686      1.358918472284     -0.471925063986
 N         2.687698068069     -0.887704828704     -0.854638906958
 N         3.557743287133      0.671813010549      0.844457285486
 N        -0.121600312533     -2.179507496950      0.344549722603
 C        -1.157058289915     -0.185176414091      1.230974215718
 C         1.355654854725     -0.491129063301      1.258353387758
 C        -2.141983489950      0.321079926088      0.163331806861
 C         2.260417137639      0.140508957161      0.195867917142
 H        -0.838657035444      0.700507250490      1.775725877000
 H        -1.742897155601     -0.830569900376      1.892202893621
 H         1.869856267818     -1.372731668726      1.642685598723
 H         1.249264789811      0.230037615751      2.065736680508
