17
043CID69321
 O         2.577699600349      1.085617610746     -0.554941509243
 O         2.558984854686     -1.100370806317     -0.555409859217
 N         2.234944012801     -0.004607169146     -0.110564284734
 C        -0.137440454009      0.002365786279      0.553671424948
 C         1.276057410720      0.002918370644      1.068354267316
 C        -0.787761542180      1.211544668732      0.286062004975
 C        -0.789039915826     -1.207292504495      0.291349038440
 C        -2.084659934249      1.210673680765     -0.224630416809
 C        -2.085896460188     -1.207204843136     -0.219374597912
 C        -2.735417982486      0.001530501428     -0.476082425008
 H         1.513616254141      0.903576451685      1.633876237321
 H         1.510918184426     -0.892972009216      1.642655419210
 H        -0.273327944548      2.149861053580      0.473436868737
 H        -0.275463436476     -2.145274888099      0.482527390236
 H        -2.586247095430      2.152498613963     -0.426518468147
 H        -2.588490770747     -2.149357504502     -0.417189600108
 H        -3.746974780985      0.001192987088     -0.871721490006
