19
044CID136409
 O         1.566752457626     -1.632547107583      1.752488002929
 O         2.849583923602      1.306262856234     -0.043408293878
 O         1.945858245726     -1.599159351273     -0.403504275728
 O         1.210034597273      1.389033046808     -1.487709003970
 N         1.543354635815     -1.116040621151      0.646526449840
 N         1.714508793518      1.057603411530     -0.428937503269
 C         0.872252783105      0.251347740811      0.572764321153
 C        -0.572807311418      0.123592142186      0.227756241946
 C        -1.518130091831      0.675354013350      1.098208509591
 C        -0.988584222730     -0.540225027769     -0.933952614299
 C        -2.877474726475      0.570086221910      0.808866187026
 C        -2.346940404586     -0.643572883108     -1.216534199163
 C        -3.291275587531     -0.089260530160     -0.348438755916
 H         1.047304674162      0.719481585118      1.537622840958
 H        -1.190509566630      1.184820542976      2.000257851434
 H        -0.252845005282     -0.968456899407     -1.604582540819
 H        -3.608753482634      0.999624297447      1.486463065657
 H        -2.670047327232     -1.156961209370     -2.116777873760
 H        -4.350082384480     -0.173382228550     -0.574908409733
