10
068CID7845
 C        -0.611065746459      0.395940499211      0.000020786981
 C         0.611066381668     -0.395783707064      0.000020781116
 C        -1.845718576742     -0.124635783327      0.000018898405
 C         1.845717784492      0.124796425067      0.000018895875
 H        -0.484442957424      1.478824046163      0.000022827597
 H         0.484446720062     -1.478667523907      0.000022807655
 H        -2.731634163524      0.502757811829      0.000019156651
 H        -2.008756852745     -1.200104665437      0.000018347849
 H         2.731636113398     -0.502593208221      0.000019141187
 H         2.008751297275      1.200266105685      0.000018356686
