11
102CID1049
 N        -1.396417078344     -0.000294544409     -0.000024743373
 C         1.409318005130      0.000245798367     -0.000010890588
 C         0.696735798228      1.198248069105     -0.000002876487
 C         0.697202599360     -1.198024110043     -0.000027886427
 C        -0.697732238655      1.141750424033      0.000012520656
 C        -0.697296867660     -1.142059374940     -0.000043049673
 H         2.495768938211      0.000462023069     -0.000009576505
 H         1.206154387281      2.157104804250     -0.000005036974
 H         1.206979478694     -2.156690247258     -0.000033635030
 H        -1.284356127879      2.058888962265     -0.000008988128
 H        -1.283556894366     -2.059431804440     -0.000045837473
