
     RDKit          3D

 28 29  0  0  0  0  0  0  0  0999 V2000
    0.2068   -3.4377    1.4767 F   0  0  0  0  0  0  0  0  0  0  0  0
    0.0455   -2.7647    0.2835 N   0  0  0  0  0  0  0  0  0  0  0  0
    0.1344   -3.6332   -0.7842 F   0  0  0  0  0  0  0  0  0  0  0  0
    1.0015   -1.7055    0.1620 N   0  0  0  0  0  0  0  0  0  0  0  0
    2.3389   -1.8926    0.1234 N   0  0  0  0  0  0  0  0  0  0  0  0
    2.8339   -0.6615   -0.0696 C   0  0  0  0  0  0  0  0  0  0  0  0
    1.8425    0.3216   -0.1129 C   0  0  0  0  0  0  0  0  0  0  0  0
    0.6455   -0.3608    0.0787 C   0  0  0  0  0  0  0  0  0  0  0  0
   -0.7209    0.1182    0.1389 C   0  0  0  0  0  0  0  0  0  0  0  0
   -1.5160    0.7279   -0.8262 C   0  0  0  0  0  0  0  0  0  0  0  0
   -2.7414    0.9590   -0.1966 C   0  0  0  0  0  0  0  0  0  0  0  0
   -2.7570    0.5486    1.0798 N   0  0  0  0  0  0  0  0  0  0  0  0
   -1.5059    0.0841    1.2898 N   0  0  0  0  0  0  0  0  0  0  0  0
   -1.0302   -0.4006    2.5506 N   0  0  0  0  0  0  0  0  0  0  0  0
   -1.7433   -1.5115    2.9506 F   0  0  0  0  0  0  0  0  0  0  0  0
   -1.0850    0.5880    3.5107 F   0  0  0  0  0  0  0  0  0  0  0  0
   -3.9683    1.4595   -0.7548 N   0  0  0  0  0  4  0  0  0  0  0  0
   -4.4261    0.8167   -1.7081 O   0  0  0  0  0  1  0  0  0  0  0  0
   -4.4521    2.4745   -0.2414 O   0  0  0  0  0  0  0  0  0  0  0  0
   -1.1651    1.0516   -2.1689 N   0  0  0  0  0  4  0  0  0  0  0  0
   -0.1868    0.4598   -2.6397 O   0  0  0  0  0  1  0  0  0  0  0  0
   -1.8415    1.9129   -2.7324 O   0  0  0  0  0  0  0  0  0  0  0  0
    2.0275    1.7205   -0.3122 N   0  0  0  0  0  4  0  0  0  0  0  0
    3.0822    2.0764   -0.8391 O   0  0  0  0  0  1  0  0  0  0  0  0
    1.0935    2.4535    0.0332 O   0  0  0  0  0  0  0  0  0  0  0  0
    4.2636   -0.5104   -0.0950 N   0  0  0  0  0  4  0  0  0  0  0  0
    4.8800   -1.0989   -0.9904 O   0  0  0  0  0  1  0  0  0  0  0  0
    4.7439    0.2044    0.7937 O   0  0  0  0  0  0  0  0  0  0  0  0
  1  2  1  0
  2  3  1  0
  2  4  1  0
  4  5  1  0
  5  6  2  0
  6  7  1  0
  7  8  2  0
  8  9  1  0
  9 10  2  0
 10 11  1  0
 11 12  2  0
 12 13  1  0
 13 14  1  0
 14 15  1  0
 14 16  1  0
 11 17  1  0
 17 18  1  0
 17 19  2  0
 10 20  1  0
 20 21  1  0
 20 22  2  0
  7 23  1  0
 23 24  1  0
 23 25  2  0
  6 26  1  0
 26 27  1  0
 26 28  2  0
  8  4  1  0
 13  9  1  0
M  CHG  8  17   1  18  -1  20   1  21  -1  23   1  24  -1  26   1  27  -1
M  END
$$$$
