
     RDKit          3D

 23 23  0  0  0  0  0  0  0  0999 V2000
    2.5479    1.1882    0.1411 N   0  0  0  0  0  0  0  0  0  0  0  0
    1.3765    0.4208   -0.0266 C   0  0  0  0  0  0  0  0  0  0  0  0
    1.4023   -0.9908    0.0285 C   0  0  0  0  0  0  0  0  0  0  0  0
    2.6741   -1.7192    0.0780 N   0  0  0  0  0  4  0  0  0  0  0  0
    3.6401   -1.2291   -0.5241 O   0  0  0  0  0  1  0  0  0  0  0  0
    2.6892   -2.7885    0.7013 O   0  0  0  0  0  0  0  0  0  0  0  0
    0.2259   -1.7557    0.0372 C   0  0  0  0  0  0  0  0  0  0  0  0
   -1.0127   -1.1045    0.0028 C   0  0  0  0  0  0  0  0  0  0  0  0
   -2.1991   -1.9478    0.0753 N   0  0  0  0  0  4  0  0  0  0  0  0
   -2.9769   -1.7262    1.0076 O   0  0  0  0  0  1  0  0  0  0  0  0
   -2.3078   -2.8278   -0.7843 O   0  0  0  0  0  0  0  0  0  0  0  0
   -1.1214    0.2931   -0.0484 C   0  0  0  0  0  0  0  0  0  0  0  0
   -2.4623    0.9758   -0.1610 C   0  0  0  0  0  0  0  0  0  0  0  0
   -2.3975    2.1516   -0.8400 F   0  0  0  0  0  0  0  0  0  0  0  0
   -3.3643    0.2362   -0.8602 F   0  0  0  0  0  0  0  0  0  0  0  0
   -3.0216    1.2436    1.0411 F   0  0  0  0  0  0  0  0  0  0  0  0
    0.0891    1.0243   -0.0021 C   0  0  0  0  0  0  0  0  0  0  0  0
    0.0222    2.4767    0.1204 N   0  0  0  0  0  4  0  0  0  0  0  0
    0.6103    3.1409   -0.7423 O   0  0  0  0  0  1  0  0  0  0  0  0
   -0.6105    2.9223    1.0835 O   0  0  0  0  0  0  0  0  0  0  0  0
    3.4114    0.7245   -0.1659 H   0  0  0  0  0  0  0  0  0  0  0  0
    2.5145    2.1371   -0.2442 H   0  0  0  0  0  0  0  0  0  0  0  0
    0.2707   -2.8454    0.0824 H   0  0  0  0  0  0  0  0  0  0  0  0
  1  2  1  0
  2  3  2  0
  3  4  1  0
  4  5  1  0
  4  6  2  0
  3  7  1  0
  7  8  2  0
  8  9  1  0
  9 10  1  0
  9 11  2  0
  8 12  1  0
 12 13  1  0
 13 14  1  0
 13 15  1  0
 13 16  1  0
 12 17  2  0
 17 18  1  0
 18 19  1  0
 18 20  2  0
 17  2  1  0
  1 21  1  0
  1 22  1  0
  7 23  1  0
M  CHG  6   4   1   5  -1   9   1  10  -1  18   1  19  -1
M  END
$$$$
