
     RDKit          3D

 29 28  0  0  0  0  0  0  0  0999 V2000
    1.5136    0.1662   -1.7046 F   0  0  0  0  0  0  0  0  0  0  0  0
    2.2685   -0.2062   -0.6385 C   0  0  0  0  0  0  0  0  0  0  0  0
    1.3909   -0.7547    0.4849 C   0  0  0  0  0  0  0  0  0  0  0  0
    0.0227   -0.0500    0.7656 C   0  0  0  0  0  0  0  0  0  0  0  0
   -0.9749   -0.1100   -0.4297 C   0  0  0  0  0  0  0  0  0  0  0  0
   -2.3968    0.4551   -0.2431 C   0  0  0  0  0  0  0  0  0  0  0  0
   -2.4138    1.5370    0.5717 F   0  0  0  0  0  0  0  0  0  0  0  0
   -3.4195   -0.5196    0.2633 N   0  0  0  0  0  4  0  0  0  0  0  0
   -4.5277   -0.0877    0.6063 O   0  0  0  0  0  1  0  0  0  0  0  0
   -3.0793   -1.7130    0.3116 O   0  0  0  0  0  0  0  0  0  0  0  0
   -2.9613    0.8855   -1.5716 N   0  0  0  0  0  4  0  0  0  0  0  0
   -3.3462    2.0550   -1.6993 O   0  0  0  0  0  1  0  0  0  0  0  0
   -2.9379    0.0472   -2.4871 O   0  0  0  0  0  0  0  0  0  0  0  0
   -0.6144   -0.6952    1.9837 N   0  0  0  0  0  4  0  0  0  0  0  0
   -1.6295   -0.1626    2.4431 O   0  0  0  0  0  1  0  0  0  0  0  0
   -0.1383   -1.7643    2.3801 O   0  0  0  0  0  0  0  0  0  0  0  0
    0.3045    1.3710    1.1766 N   0  0  0  0  0  4  0  0  0  0  0  0
    0.2602    2.2055    0.2654 O   0  0  0  0  0  1  0  0  0  0  0  0
    0.6811    1.5936    2.3289 O   0  0  0  0  0  0  0  0  0  0  0  0
    3.1551    0.9505   -0.3084 N   0  0  0  0  0  4  0  0  0  0  0  0
    3.6095    1.6194   -1.2457 O   0  0  0  0  0  1  0  0  0  0  0  0
    3.3580    1.1831    0.8904 O   0  0  0  0  0  0  0  0  0  0  0  0
    3.2127   -1.2701   -1.1266 N   0  0  0  0  0  4  0  0  0  0  0  0
    3.0102   -1.7462   -2.2523 O   0  0  0  0  0  1  0  0  0  0  0  0
    4.0739   -1.6782   -0.3343 O   0  0  0  0  0  0  0  0  0  0  0  0
    1.1473   -1.7964    0.2227 H   0  0  0  0  0  0  0  0  0  0  0  0
    1.9822   -0.8272    1.4095 H   0  0  0  0  0  0  0  0  0  0  0  0
   -0.5335    0.4544   -1.2591 H   0  0  0  0  0  0  0  0  0  0  0  0
   -1.0173   -1.1424   -0.8032 H   0  0  0  0  0  0  0  0  0  0  0  0
  1  2  1  0
  2  3  1  0
  3  4  1  0
  4  5  1  0
  5  6  1  0
  6  7  1  0
  6  8  1  0
  8  9  1  0
  8 10  2  0
  6 11  1  0
 11 12  1  0
 11 13  2  0
  4 14  1  0
 14 15  1  0
 14 16  2  0
  4 17  1  0
 17 18  1  0
 17 19  2  0
  2 20  1  0
 20 21  1  0
 20 22  2  0
  2 23  1  0
 23 24  1  0
 23 25  2  0
  3 26  1  0
  3 27  1  0
  5 28  1  0
  5 29  1  0
M  CHG  8   8   1   9  -1  11   1  12  -1  14   1  15  -1  17   1  18  -1
M  CHG  4  20   1  21  -1  23   1  24  -1
M  END
$$$$
