
     RDKit          3D

 13 13  0  0  0  0  0  0  0  0999 V2000
   -0.4721   -1.8636   -0.4172 C   0  0  0  0  0  0  0  0  0  0  0  0
    0.7638   -1.6254   -0.0142 N   0  0  0  0  0  0  0  0  0  0  0  0
    0.8010   -0.2504    0.2057 C   0  0  0  0  0  0  0  0  0  0  0  0
    1.9816    0.3937    0.7084 N   0  0  0  0  0  4  0  0  0  0  0  0
    3.0726   -0.0671    0.3556 O   0  0  0  0  0  1  0  0  0  0  0  0
    1.8013    1.3520    1.4696 O   0  0  0  0  0  0  0  0  0  0  0  0
   -0.4155    0.3082   -0.0675 C   0  0  0  0  0  0  0  0  0  0  0  0
   -0.8623    1.6279   -0.0619 N   0  0  0  0  0  4  0  0  0  0  0  0
   -1.9694    1.8377    0.4391 O   0  0  0  0  0  1  0  0  0  0  0  0
   -0.1135    2.4569   -0.5838 O   0  0  0  0  0  0  0  0  0  0  0  0
   -1.2027   -0.7143   -0.4504 N   0  0  0  0  0  0  0  0  0  0  0  0
   -2.4994   -0.6321   -0.8868 F   0  0  0  0  0  0  0  0  0  0  0  0
   -0.8855   -2.8236   -0.6968 H   0  0  0  0  0  0  0  0  0  0  0  0
  1  2  2  0
  2  3  1  0
  3  4  1  0
  4  5  1  0
  4  6  2  0
  3  7  2  0
  7  8  1  0
  8  9  1  0
  8 10  2  0
  7 11  1  0
 11 12  1  0
 11  1  1  0
  1 13  1  0
M  CHG  4   4   1   5  -1   8   1   9  -1
M  END
$$$$
