
     RDKit          3D

 34 34  0  0  0  0  0  0  0  0999 V2000
    0.3101   -3.3347    0.7558 O   0  0  0  0  0  1  0  0  0  0  0  0
   -0.5912   -2.6819    0.2330 N   0  0  0  0  0  4  0  0  0  0  0  0
   -1.7749   -3.0033    0.1485 O   0  0  0  0  0  0  0  0  0  0  0  0
   -0.2334   -1.4676   -0.3124 N   0  0  0  0  0  0  0  0  0  0  0  0
    1.1699   -1.2895   -0.7263 C   0  0  0  0  0  0  0  0  0  0  0  0
    2.0625   -0.3734    0.1877 C   0  0  0  0  0  0  0  0  0  0  0  0
    3.3692   -0.2325   -0.5038 N   0  0  0  0  0  0  0  0  0  0  0  0
    3.2248    0.2887   -1.7751 F   0  0  0  0  0  0  0  0  0  0  0  0
    4.2565    0.5378    0.2214 F   0  0  0  0  0  0  0  0  0  0  0  0
    2.2599   -1.0173    1.4966 N   0  0  0  0  0  0  0  0  0  0  0  0
    2.8227   -2.2724    1.3630 F   0  0  0  0  0  0  0  0  0  0  0  0
    3.0442   -0.2481    2.3331 F   0  0  0  0  0  0  0  0  0  0  0  0
    1.4305    1.0565    0.3312 C   0  0  0  0  0  0  0  0  0  0  0  0
    0.1085    1.1274    0.9798 N   0  0  0  0  0  0  0  0  0  0  0  0
    0.0458    1.4502    2.3185 N   0  0  0  0  0  4  0  0  0  0  0  0
   -1.0777    1.6151    2.7899 O   0  0  0  0  0  1  0  0  0  0  0  0
    1.1137    1.5431    2.9203 O   0  0  0  0  0  0  0  0  0  0  0  0
   -1.0117    1.5514    0.1218 C   0  0  0  0  0  0  0  0  0  0  0  0
   -2.0036    0.4269   -0.3426 C   0  0  0  0  0  0  0  0  0  0  0  0
   -2.7597   -0.1221    0.7945 N   0  0  0  0  0  0  0  0  0  0  0  0
   -3.6816   -1.0641    0.3795 F   0  0  0  0  0  0  0  0  0  0  0  0
   -3.4043    0.8697    1.5077 F   0  0  0  0  0  0  0  0  0  0  0  0
   -2.9434    1.0266   -1.3238 N   0  0  0  0  0  0  0  0  0  0  0  0
   -2.2909    1.4667   -2.4591 F   0  0  0  0  0  0  0  0  0  0  0  0
   -3.6765    2.0584   -0.7719 F   0  0  0  0  0  0  0  0  0  0  0  0
   -1.2367   -0.7209   -1.0939 C   0  0  0  0  0  0  0  0  0  0  0  0
    1.6686   -2.2611   -0.8634 H   0  0  0  0  0  0  0  0  0  0  0  0
    1.1865   -0.8777   -1.7451 H   0  0  0  0  0  0  0  0  0  0  0  0
    1.3590    1.4772   -0.6819 H   0  0  0  0  0  0  0  0  0  0  0  0
    2.1438    1.7330    0.8235 H   0  0  0  0  0  0  0  0  0  0  0  0
   -1.5802    2.3671    0.5930 H   0  0  0  0  0  0  0  0  0  0  0  0
   -0.6082    2.0395   -0.7767 H   0  0  0  0  0  0  0  0  0  0  0  0
   -0.7430   -0.2632   -1.9627 H   0  0  0  0  0  0  0  0  0  0  0  0
   -1.9593   -1.4057   -1.5618 H   0  0  0  0  0  0  0  0  0  0  0  0
  1  2  1  0
  2  3  2  0
  2  4  1  0
  4  5  1  0
  5  6  1  0
  6  7  1  0
  7  8  1  0
  7  9  1  0
  6 10  1  0
 10 11  1  0
 10 12  1  0
  6 13  1  0
 13 14  1  0
 14 15  1  0
 15 16  1  0
 15 17  2  0
 14 18  1  0
 18 19  1  0
 19 20  1  0
 20 21  1  0
 20 22  1  0
 19 23  1  0
 23 24  1  0
 23 25  1  0
 19 26  1  0
 26  4  1  0
  5 27  1  0
  5 28  1  0
 13 29  1  0
 13 30  1  0
 18 31  1  0
 18 32  1  0
 26 33  1  0
 26 34  1  0
M  CHG  4   1  -1   2   1  15   1  16  -1
M  END
$$$$
