
     RDKit          3D

 18 19  0  0  0  0  0  0  0  0999 V2000
   -3.7862   -2.1107   -1.1163 O   0  0  0  0  0  1  0  0  0  0  0  0
   -3.9407   -0.9215   -0.8039 N   0  0  0  0  0  4  0  0  0  0  0  0
   -5.0306   -0.3342   -0.7346 O   0  0  0  0  0  0  0  0  0  0  0  0
   -2.7374   -0.1591   -0.4944 C   0  0  0  0  0  0  0  0  0  0  0  0
   -1.4756   -0.7061   -0.5380 N   0  0  0  0  0  0  0  0  0  0  0  0
   -0.7013    0.3105   -0.1946 C   0  0  0  0  0  0  0  0  0  0  0  0
    0.7204    0.2333   -0.0963 C   0  0  0  0  0  0  0  0  0  0  0  0
    1.4204   -0.8633   -0.3378 N   0  0  0  0  0  0  0  0  0  0  0  0
    2.7158   -0.4550   -0.1174 C   0  0  0  0  0  0  0  0  0  0  0  0
    3.8610   -1.3449   -0.2646 N   0  0  0  0  0  4  0  0  0  0  0  0
    4.9880   -0.8779   -0.0421 O   0  0  0  0  0  1  0  0  0  0  0  0
    3.6236   -2.5129   -0.6041 O   0  0  0  0  0  0  0  0  0  0  0  0
    2.8681    0.8270    0.2463 N   0  0  0  0  0  0  0  0  0  0  0  0
    1.5938    1.2295    0.2497 N   0  0  0  0  0  0  0  0  0  0  0  0
    1.2418    2.5141    0.5714 F   0  0  0  0  0  0  0  0  0  0  0  0
   -1.5015    1.3975    0.0356 N   0  0  0  0  0  0  0  0  0  0  0  0
   -1.0606    2.6391    0.4122 F   0  0  0  0  0  0  0  0  0  0  0  0
   -2.7991    1.1346   -0.1455 N   0  0  0  0  0  0  0  0  0  0  0  0
  1  2  1  0
  2  3  2  0
  2  4  1  0
  4  5  1  0
  5  6  2  0
  6  7  1  0
  7  8  2  0
  8  9  1  0
  9 10  1  0
 10 11  1  0
 10 12  2  0
  9 13  2  0
 13 14  1  0
 14 15  1  0
  6 16  1  0
 16 17  1  0
 16 18  1  0
 14  7  1  0
 18  4  2  0
M  CHG  4   1  -1   2   1  10   1  11  -1
M  END
$$$$
