
     RDKit          3D

 62 61  0  0  0  0  0  0  0  0999 V2000
   -5.3676   -0.3686    1.8079 F   0  0  0  0  0  0  0  0  0  0  0  0
   -6.3475    0.2175    1.0643 C   0  0  0  0  0  0  0  0  0  0  0  0
   -5.7935    0.7694   -0.2635 C   0  0  0  0  0  0  0  0  0  0  0  0
   -4.6521    0.1003   -0.9820 N   0  0  0  0  0  0  0  0  0  0  0  0
   -3.4005    0.0711   -0.1667 C   0  0  0  0  0  0  0  0  0  0  0  0
   -1.9792   -0.0292   -0.8311 C   0  0  0  0  0  0  0  0  0  0  0  0
   -0.7506    0.0956    0.1889 C   0  0  0  0  0  0  0  0  0  0  0  0
   -0.9692   -0.7633    1.3255 O   0  0  0  0  0  0  0  0  0  0  0  0
   -1.5462   -0.1427    2.4740 N   0  0  0  0  0  4  0  0  0  0  0  0
   -1.5380   -0.8669    3.4607 O   0  0  0  0  0  1  0  0  0  0  0  0
   -2.0339    0.9696    2.2918 O   0  0  0  0  0  0  0  0  0  0  0  0
    0.7372   -0.2351   -0.3908 C   0  0  0  0  0  0  0  0  0  0  0  0
    0.9461    0.6598   -1.5060 O   0  0  0  0  0  0  0  0  0  0  0  0
    1.5187    0.0693   -2.6764 N   0  0  0  0  0  4  0  0  0  0  0  0
    1.4978    0.8178   -3.6440 O   0  0  0  0  0  1  0  0  0  0  0  0
    2.0033   -1.0479   -2.5250 O   0  0  0  0  0  0  0  0  0  0  0  0
    1.9761   -0.1579    0.6191 C   0  0  0  0  0  0  0  0  0  0  0  0
    3.3821   -0.4104   -0.0327 C   0  0  0  0  0  0  0  0  0  0  0  0
    4.6251   -0.3279    0.7745 N   0  0  0  0  0  0  0  0  0  0  0  0
    5.6738    0.6220    0.2966 C   0  0  0  0  0  0  0  0  0  0  0  0
    6.6599    0.1769   -0.8003 C   0  0  0  0  0  0  0  0  0  0  0  0
    6.9487   -1.1494   -0.7535 F   0  0  0  0  0  0  0  0  0  0  0  0
    7.9377    0.9407   -0.6684 N   0  0  0  0  0  4  0  0  0  0  0  0
    8.9570    0.3267   -0.3277 O   0  0  0  0  0  1  0  0  0  0  0  0
    7.8806    2.1717   -0.8210 O   0  0  0  0  0  0  0  0  0  0  0  0
    6.1975    0.4350   -2.1990 N   0  0  0  0  0  4  0  0  0  0  0  0
    6.8881   -0.0014   -3.1306 O   0  0  0  0  0  1  0  0  0  0  0  0
    5.1190    1.0310   -2.3541 O   0  0  0  0  0  0  0  0  0  0  0  0
    5.1071   -1.4960    1.3477 N   0  0  0  0  0  4  0  0  0  0  0  0
    4.3320   -2.4495    1.3618 O   0  0  0  0  0  1  0  0  0  0  0  0
    6.2479   -1.4421    1.8007 O   0  0  0  0  0  0  0  0  0  0  0  0
    1.9449    1.2062    1.2527 N   0  0  0  0  0  4  0  0  0  0  0  0
    1.0200    1.4596    2.0342 O   0  0  0  0  0  1  0  0  0  0  0  0
    2.7751    2.0393    0.8705 O   0  0  0  0  0  0  0  0  0  0  0  0
    1.8094   -1.1612    1.7212 N   0  0  0  0  0  4  0  0  0  0  0  0
    2.2541   -0.8967    2.8441 O   0  0  0  0  0  1  0  0  0  0  0  0
    1.2560   -2.2241    1.4115 O   0  0  0  0  0  0  0  0  0  0  0  0
   -1.8127   -1.3386   -1.5319 N   0  0  0  0  0  4  0  0  0  0  0  0
   -2.3382   -2.3163   -0.9917 O   0  0  0  0  0  1  0  0  0  0  0  0
   -1.0351   -1.4030   -2.4875 O   0  0  0  0  0  0  0  0  0  0  0  0
   -1.9233    1.0763   -1.8492 N   0  0  0  0  0  4  0  0  0  0  0  0
   -1.4043    2.1381   -1.4767 O   0  0  0  0  0  1  0  0  0  0  0  0
   -2.4637    0.9163   -2.9465 O   0  0  0  0  0  0  0  0  0  0  0  0
   -5.0143   -1.1280   -1.4777 N   0  0  0  0  0  4  0  0  0  0  0  0
   -5.3809   -1.9525   -0.6402 O   0  0  0  0  0  1  0  0  0  0  0  0
   -4.8681   -1.2541   -2.6872 O   0  0  0  0  0  0  0  0  0  0  0  0
   -7.4757   -0.7532    0.9517 N   0  0  0  0  0  4  0  0  0  0  0  0
   -7.7170   -1.4756    1.9304 O   0  0  0  0  0  1  0  0  0  0  0  0
   -8.1181   -0.7752   -0.1109 O   0  0  0  0  0  0  0  0  0  0  0  0
   -6.9122    1.3370    1.8840 N   0  0  0  0  0  4  0  0  0  0  0  0
   -7.7874    2.0437    1.3604 O   0  0  0  0  0  1  0  0  0  0  0  0
   -6.4182    1.5495    3.0005 O   0  0  0  0  0  0  0  0  0  0  0  0
   -5.4342    1.7938   -0.0815 H   0  0  0  0  0  0  0  0  0  0  0  0
   -6.6019    0.9207   -0.9956 H   0  0  0  0  0  0  0  0  0  0  0  0
   -3.3945    1.0287    0.3696 H   0  0  0  0  0  0  0  0  0  0  0  0
   -3.4905   -0.7089    0.5997 H   0  0  0  0  0  0  0  0  0  0  0  0
   -0.7096    1.1426    0.5014 H   0  0  0  0  0  0  0  0  0  0  0  0
    0.6838   -1.2765   -0.7255 H   0  0  0  0  0  0  0  0  0  0  0  0
    3.3703   -1.3755   -0.5552 H   0  0  0  0  0  0  0  0  0  0  0  0
    3.4703    0.3265   -0.8313 H   0  0  0  0  0  0  0  0  0  0  0  0
    6.2562    0.8950    1.1912 H   0  0  0  0  0  0  0  0  0  0  0  0
    5.2024    1.5801    0.0361 H   0  0  0  0  0  0  0  0  0  0  0  0
  1  2  1  0
  2  3  1  0
  3  4  1  0
  4  5  1  0
  5  6  1  0
  6  7  1  0
  7  8  1  0
  8  9  1  0
  9 10  1  0
  9 11  2  0
  7 12  1  0
 12 13  1  0
 13 14  1  0
 14 15  1  0
 14 16  2  0
 12 17  1  0
 17 18  1  0
 18 19  1  0
 19 20  1  0
 20 21  1  0
 21 22  1  0
 21 23  1  0
 23 24  1  0
 23 25  2  0
 21 26  1  0
 26 27  1  0
 26 28  2  0
 19 29  1  0
 29 30  1  0
 29 31  2  0
 17 32  1  0
 32 33  1  0
 32 34  2  0
 17 35  1  0
 35 36  1  0
 35 37  2  0
  6 38  1  0
 38 39  1  0
 38 40  2  0
  6 41  1  0
 41 42  1  0
 41 43  2  0
  4 44  1  0
 44 45  1  0
 44 46  2  0
  2 47  1  0
 47 48  1  0
 47 49  2  0
  2 50  1  0
 50 51  1  0
 50 52  2  0
  3 53  1  0
  3 54  1  0
  5 55  1  0
  5 56  1  0
  7 57  1  0
 12 58  1  0
 18 59  1  0
 18 60  1  0
 20 61  1  0
 20 62  1  0
M  CHG  8   9   1  10  -1  14   1  15  -1  23   1  24  -1  26   1  27  -1
M  CHG  8  29   1  30  -1  32   1  33  -1  35   1  36  -1  38   1  39  -1
M  CHG  8  41   1  42  -1  44   1  45  -1  47   1  48  -1  50   1  51  -1
M  END
$$$$
