
     RDKit          3D

 28 27  0  0  0  0  0  0  0  0999 V2000
    1.3171   -0.4163    1.9301 F   0  0  0  0  0  0  0  0  0  0  0  0
    1.6565   -0.6576    0.6224 C   0  0  0  0  0  0  0  0  0  0  0  0
    0.3787   -0.6615   -0.2415 C   0  0  0  0  0  0  0  0  0  0  0  0
    0.5489   -0.3554   -1.6525 O   0  0  0  0  0  0  0  0  0  0  0  0
    1.1290   -1.3137   -2.4184 C   0  0  0  0  0  0  0  0  0  0  0  0
    1.5161   -2.3786   -1.9767 O   0  0  0  0  0  0  0  0  0  0  0  0
   -0.6547    0.3806    0.3117 C   0  0  0  0  0  0  0  0  0  0  0  0
    0.0527    1.6640    0.3172 O   0  0  0  0  0  0  0  0  0  0  0  0
   -0.1947    2.4936    1.3671 C   0  0  0  0  0  0  0  0  0  0  0  0
   -0.9707    2.2320    2.2668 O   0  0  0  0  0  0  0  0  0  0  0  0
   -1.9309    0.4929   -0.5304 C   0  0  0  0  0  0  0  0  0  0  0  0
   -1.6720    0.9579   -1.7865 F   0  0  0  0  0  0  0  0  0  0  0  0
   -2.9395    1.4170    0.0710 N   0  0  0  0  0  4  0  0  0  0  0  0
   -2.9862    2.5758   -0.3709 O   0  0  0  0  0  1  0  0  0  0  0  0
   -3.6366    0.9978    1.0065 O   0  0  0  0  0  0  0  0  0  0  0  0
   -2.6519   -0.8041   -0.7127 N   0  0  0  0  0  4  0  0  0  0  0  0
   -2.4754   -1.6828    0.1454 O   0  0  0  0  0  1  0  0  0  0  0  0
   -3.3457   -0.9494   -1.7292 O   0  0  0  0  0  0  0  0  0  0  0  0
    2.6471    0.4047    0.2549 N   0  0  0  0  0  4  0  0  0  0  0  0
    2.9710    1.2215    1.1324 O   0  0  0  0  0  1  0  0  0  0  0  0
    3.0374    0.4659   -0.9215 O   0  0  0  0  0  0  0  0  0  0  0  0
    2.3587   -1.9760    0.6983 N   0  0  0  0  0  4  0  0  0  0  0  0
    1.6624   -2.9441    1.0466 O   0  0  0  0  0  1  0  0  0  0  0  0
    3.5777   -2.0390    0.4842 O   0  0  0  0  0  0  0  0  0  0  0  0
   -0.0933   -1.6472   -0.1768 H   0  0  0  0  0  0  0  0  0  0  0  0
    1.1974   -0.9787   -3.4649 H   0  0  0  0  0  0  0  0  0  0  0  0
   -0.9004    0.0860    1.3409 H   0  0  0  0  0  0  0  0  0  0  0  0
    0.4012    3.4146    1.2707 H   0  0  0  0  0  0  0  0  0  0  0  0
  1  2  1  0
  2  3  1  0
  3  4  1  0
  4  5  1  0
  5  6  2  0
  3  7  1  0
  7  8  1  0
  8  9  1  0
  9 10  2  0
  7 11  1  0
 11 12  1  0
 11 13  1  0
 13 14  1  0
 13 15  2  0
 11 16  1  0
 16 17  1  0
 16 18  2  0
  2 19  1  0
 19 20  1  0
 19 21  2  0
  2 22  1  0
 22 23  1  0
 22 24  2  0
  3 25  1  0
  5 26  1  0
  7 27  1  0
  9 28  1  0
M  CHG  8  13   1  14  -1  16   1  17  -1  19   1  20  -1  22   1  23  -1
M  END
$$$$
