
     RDKit          3D

 50 49  0  0  0  0  0  0  0  0999 V2000
    2.3552   -1.2602    0.5261 F   0  0  0  0  0  0  0  0  0  0  0  0
    2.2811   -1.6251   -0.7847 C   0  0  0  0  0  0  0  0  0  0  0  0
    2.1660   -0.3993   -1.7011 C   0  0  0  0  0  0  0  0  0  0  0  0
    1.6700    0.8886   -1.0785 N   0  0  0  0  0  0  0  0  0  0  0  0
    2.5962    2.0612   -1.0515 C   0  0  0  0  0  0  0  0  0  0  0  0
    3.3145    2.4905    0.2298 C   0  0  0  0  0  0  0  0  0  0  0  0
    4.0510    3.6164   -0.0215 F   0  0  0  0  0  0  0  0  0  0  0  0
    2.3943    2.8088    1.3538 N   0  0  0  0  0  4  0  0  0  0  0  0
    2.1945    4.0031    1.6204 O   0  0  0  0  0  1  0  0  0  0  0  0
    1.8299    1.8631    1.9288 O   0  0  0  0  0  0  0  0  0  0  0  0
    4.3097    1.5020    0.7341 N   0  0  0  0  0  4  0  0  0  0  0  0
    4.4345    0.4363    0.1050 O   0  0  0  0  0  1  0  0  0  0  0  0
    4.9991    1.8111    1.7162 O   0  0  0  0  0  0  0  0  0  0  0  0
    0.3301    1.1673   -0.7483 C   0  0  0  0  0  0  0  0  0  0  0  0
    0.0012    2.2447   -0.2669 O   0  0  0  0  0  0  0  0  0  0  0  0
   -0.7659    0.1315   -1.0356 C   0  0  0  0  0  0  0  0  0  0  0  0
   -0.7062   -0.4733   -2.1004 O   0  0  0  0  0  0  0  0  0  0  0  0
   -1.7879   -0.0988   -0.0986 N   0  0  0  0  0  0  0  0  0  0  0  0
   -2.8675   -1.0460   -0.5107 C   0  0  0  0  0  0  0  0  0  0  0  0
   -3.8859   -0.4953   -1.5125 C   0  0  0  0  0  0  0  0  0  0  0  0
   -3.3081    0.0025   -2.6382 F   0  0  0  0  0  0  0  0  0  0  0  0
   -4.6972    0.5919   -0.8962 N   0  0  0  0  0  4  0  0  0  0  0  0
   -5.3274    0.3200    0.1383 O   0  0  0  0  0  1  0  0  0  0  0  0
   -4.6366    1.7262   -1.3937 O   0  0  0  0  0  0  0  0  0  0  0  0
   -4.8752   -1.5148   -1.9674 N   0  0  0  0  0  4  0  0  0  0  0  0
   -4.8862   -2.6118   -1.3875 O   0  0  0  0  0  1  0  0  0  0  0  0
   -5.6264   -1.2179   -2.9093 O   0  0  0  0  0  0  0  0  0  0  0  0
   -1.8274    0.4706    1.2890 C   0  0  0  0  0  0  0  0  0  0  0  0
   -0.9043   -0.1932    2.3162 C   0  0  0  0  0  0  0  0  0  0  0  0
    0.3483   -0.3526    1.8051 F   0  0  0  0  0  0  0  0  0  0  0  0
   -1.3868   -1.5302    2.7655 N   0  0  0  0  0  4  0  0  0  0  0  0
   -0.5502   -2.4055    3.0269 O   0  0  0  0  0  1  0  0  0  0  0  0
   -2.6145   -1.6988    2.8411 O   0  0  0  0  0  0  0  0  0  0  0  0
   -0.7892    0.5949    3.5786 N   0  0  0  0  0  4  0  0  0  0  0  0
    0.2064    0.4196    4.2959 O   0  0  0  0  0  1  0  0  0  0  0  0
   -1.7139    1.3776    3.8487 O   0  0  0  0  0  0  0  0  0  0  0  0
    3.4801   -2.4764   -1.0593 N   0  0  0  0  0  4  0  0  0  0  0  0
    3.8580   -3.2512   -0.1678 O   0  0  0  0  0  1  0  0  0  0  0  0
    4.0315   -2.3624   -2.1666 O   0  0  0  0  0  0  0  0  0  0  0  0
    1.1137   -2.5447   -0.9248 N   0  0  0  0  0  4  0  0  0  0  0  0
    1.0256   -3.2287   -1.9547 O   0  0  0  0  0  1  0  0  0  0  0  0
    0.2428   -2.5099   -0.0389 O   0  0  0  0  0  0  0  0  0  0  0  0
    3.1531   -0.1493   -2.1047 H   0  0  0  0  0  0  0  0  0  0  0  0
    1.5627   -0.6030   -2.5914 H   0  0  0  0  0  0  0  0  0  0  0  0
    3.3373    1.9202   -1.8487 H   0  0  0  0  0  0  0  0  0  0  0  0
    2.0159    2.9272   -1.4008 H   0  0  0  0  0  0  0  0  0  0  0  0
   -3.3538   -1.4236    0.3944 H   0  0  0  0  0  0  0  0  0  0  0  0
   -2.3597   -1.9065   -0.9658 H   0  0  0  0  0  0  0  0  0  0  0  0
   -2.8748    0.4780    1.6139 H   0  0  0  0  0  0  0  0  0  0  0  0
   -1.5577    1.5253    1.1984 H   0  0  0  0  0  0  0  0  0  0  0  0
  1  2  1  0
  2  3  1  0
  3  4  1  0
  4  5  1  0
  5  6  1  0
  6  7  1  0
  6  8  1  0
  8  9  1  0
  8 10  2  0
  6 11  1  0
 11 12  1  0
 11 13  2  0
  4 14  1  0
 14 15  2  0
 14 16  1  0
 16 17  2  0
 16 18  1  0
 18 19  1  0
 19 20  1  0
 20 21  1  0
 20 22  1  0
 22 23  1  0
 22 24  2  0
 20 25  1  0
 25 26  1  0
 25 27  2  0
 18 28  1  0
 28 29  1  0
 29 30  1  0
 29 31  1  0
 31 32  1  0
 31 33  2  0
 29 34  1  0
 34 35  1  0
 34 36  2  0
  2 37  1  0
 37 38  1  0
 37 39  2  0
  2 40  1  0
 40 41  1  0
 40 42  2  0
  3 43  1  0
  3 44  1  0
  5 45  1  0
  5 46  1  0
 19 47  1  0
 19 48  1  0
 28 49  1  0
 28 50  1  0
M  CHG  8   8   1   9  -1  11   1  12  -1  22   1  23  -1  25   1  26  -1
M  CHG  8  31   1  32  -1  34   1  35  -1  37   1  38  -1  40   1  41  -1
M  END
$$$$
