
     RDKit          3D

 22 22  0  0  0  0  0  0  0  0999 V2000
    1.7831   -1.4131   -1.4903 N   0  0  0  0  0  0  0  0  0  0  0  0
    0.9491   -0.5569   -0.7358 C   0  0  0  0  0  0  0  0  0  0  0  0
   -0.4559   -0.7673   -0.6424 C   0  0  0  0  0  0  0  0  0  0  0  0
   -1.3014   -0.0361    0.2394 C   0  0  0  0  0  0  0  0  0  0  0  0
   -2.7096   -0.1462    0.1848 N   0  0  0  0  0  0  0  0  0  0  0  0
   -0.6774    0.9807    0.9915 C   0  0  0  0  0  0  0  0  0  0  0  0
    0.6999    1.1780    0.9862 C   0  0  0  0  0  0  0  0  0  0  0  0
    1.2558    2.1136    1.7695 F   0  0  0  0  0  0  0  0  0  0  0  0
    1.4922    0.3906    0.1566 C   0  0  0  0  0  0  0  0  0  0  0  0
    2.9236    0.5954    0.2266 N   0  0  0  0  0  4  0  0  0  0  0  0
    3.5139    0.7959   -0.8445 O   0  0  0  0  0  1  0  0  0  0  0  0
    3.4538    0.5276    1.3418 O   0  0  0  0  0  0  0  0  0  0  0  0
   -1.4643    1.8605    1.8295 N   0  0  0  0  0  4  0  0  0  0  0  0
   -2.2545    1.3237    2.6190 O   0  0  0  0  0  1  0  0  0  0  0  0
   -1.3114    3.0782    1.6771 O   0  0  0  0  0  0  0  0  0  0  0  0
   -1.0632   -1.7894   -1.4981 N   0  0  0  0  0  4  0  0  0  0  0  0
   -1.9247   -2.5223   -0.9896 O   0  0  0  0  0  1  0  0  0  0  0  0
   -0.6755   -1.8540   -2.6743 O   0  0  0  0  0  0  0  0  0  0  0  0
    1.3358   -1.8246   -2.3181 H   0  0  0  0  0  0  0  0  0  0  0  0
    2.6869   -1.0109   -1.7610 H   0  0  0  0  0  0  0  0  0  0  0  0
   -3.2011    0.1454    1.0364 H   0  0  0  0  0  0  0  0  0  0  0  0
   -3.0551   -1.0689   -0.1045 H   0  0  0  0  0  0  0  0  0  0  0  0
  1  2  1  0
  2  3  2  0
  3  4  1  0
  4  5  1  0
  4  6  2  0
  6  7  1  0
  7  8  1  0
  7  9  2  0
  9 10  1  0
 10 11  1  0
 10 12  2  0
  6 13  1  0
 13 14  1  0
 13 15  2  0
  3 16  1  0
 16 17  1  0
 16 18  2  0
  9  2  1  0
  1 19  1  0
  1 20  1  0
  5 21  1  0
  5 22  1  0
M  CHG  6  10   1  11  -1  13   1  14  -1  16   1  17  -1
M  END
$$$$
