13
003CID15311932
 O         1.703066584484      1.117421029019     -1.523013917029
 O        -0.549954119581     -2.177214407751      0.176884900442
 O        -1.103225011648      1.387895454940      1.262856045783
 O         2.303068221237     -0.778013320542     -0.592596738887
 O         0.649540440579     -1.227750255647      1.750389702787
 O         1.066638437162      1.729472381108      1.243210169833
 N         1.534478187270      0.136506711397     -0.826312131970
 N         0.079319986021     -1.264188463304      0.678369743688
 N         0.042899360480      1.185894112909      0.891354005288
 N        -0.787812009718      0.143519753331     -1.194761016430
 N        -1.986363627066     -0.068557919753     -0.887365495948
 N        -3.099458623250     -0.235234036944     -0.804863492807
 C         0.147902174029      0.050348961236     -0.174251774749
