19
023CID8461
 O         1.844127284228     -2.304978680045      0.325611400536
 O         3.223157792240     -0.746696885959     -0.313587085132
 O        -3.670553378023      0.352942433356     -0.032832623423
 O        -2.832147502796     -1.662116938376     -0.033031413866
 N         2.105265200120     -1.146706489102      0.008942874595
 N        -2.728632312479     -0.437881091641     -0.027501348052
 C         1.222299092801      1.213992750433      0.002800061026
 C         0.993018403257     -0.176719969680      0.005059390726
 C        -0.285129341543     -0.728013030246      0.004569768739
 C        -1.372259350820      0.130257457520     -0.013869629521
 C         0.078728115197      2.030275757433     -0.000441654436
 C        -1.210037463574      1.512801430054     -0.015649260391
 C         2.577381701902      1.870076266590      0.021469708505
 H        -0.421914507680     -1.800047465826      0.019103954735
 H         0.215480529708      3.106836946038      0.008506249342
 H        -2.082031770738      2.154447877485     -0.025022902455
 H         3.214601131292      1.463650959246      0.810863851219
 H         3.109327575420      1.699654377234     -0.918534954215
 H         2.462618801490      2.946424295482      0.174743612066
