5
046CID297
 H         0.002140967527     -0.007430008746      0.001969755227
 C        -0.012699674068      1.085799773406      0.008001256198
 H         1.013028710134      1.464256837186      0.000259263396
 H        -0.541492786330      1.447992060287     -0.877775467948
 H        -0.524477217262      1.438381337866      0.907545193127
