9
093CID8254
 O         0.000003584435      0.526459335810     -0.000030674790
 C         1.168648243156     -0.261085398344      0.000004199663
 C        -1.168626666366     -0.261106760129     -0.000028666953
 H         1.227040908917     -0.905750836067      0.892837024070
 H         2.021072381175      0.423201611151     -0.000000686313
 H         1.227064906030     -0.905793709322     -0.892796065594
 H        -1.227034894843     -0.905769938145      0.892804797666
 H        -1.227005014710     -0.905818975442     -0.892828509047
 H        -2.021063447794      0.423164670486     -0.000061418701
