7
094CID7855
 N        -1.783716610127     -0.191247300798      0.000000000000
 C         0.718231309575      0.491595596030      0.000000000000
 C         1.720200689826     -0.395512646814      0.000000000000
 C        -0.658524410653      0.103998263083      0.000000000000
 H         0.910938741264      1.561605674151      0.000000000000
 H         2.753432589389     -0.063975863218      0.000000000000
 H         1.536537690726     -1.465163722435      0.000000000000
