50
13VAYVIA
 F         3.739741704188      0.393547675078     -2.454412859490
 C         3.552192054638     -0.854224963759     -2.000143234843
 C         3.006634743682     -0.870392263078     -0.574202148004
 N         1.809772891931     -0.036652920824     -0.469886008073
 C         1.968663287632      1.379035660496     -0.181117174443
 C         2.114547657019      1.761807184844      1.297594022315
 F         2.502719285314      3.034469924441      1.383112419246
 N         3.182258439352      0.889480365444      1.984011316696
 O         4.332168912151      1.260917253174      1.816716492136
 O         2.790165065011     -0.122541887052      2.541298253035
 N         0.849345067798      1.594616429261      2.141855707399
 O         0.054485031654      0.751988044482      1.748069572964
 O         0.767388455749      2.296477661796      3.126252193160
 C         0.615719119924     -0.667017162633     -0.740390240291
 O         0.565485541933     -1.871588461279     -0.948326806516
 C        -0.621862986368      0.210933202070     -0.977511076605
 O        -0.510855122067      1.237806107686     -1.632367647113
 N        -1.848270146131     -0.204605256195     -0.517572664004
 C        -2.148619953817     -1.588203246093     -0.132214212166
 C        -1.977989795011     -1.877224600198      1.352266271534
 F        -0.731686662728     -1.760418181438      1.789181903344
 N        -2.890974059769     -1.009916301444      2.246899404183
 O        -3.978235862690     -0.721085213803      1.764079958882
 O        -2.455616790492     -0.729647972145      3.343433195577
 N        -2.438555452790     -3.335432592527      1.632800223087
 O        -3.528065084257     -3.637917321664      1.166012176331
 O        -1.675988324678     -4.025851965284      2.277322640331
 C        -2.993954258520      0.612593845910     -0.939365037074
 C        -2.995040128107      2.089017961360     -0.519948557920
 F        -2.629678502462      2.931332067463     -1.482525539735
 N        -2.157584926841      2.379451128396      0.733321736744
 O        -1.174426708129      3.083804164744      0.596991862103
 O        -2.572598984467      1.855847900566      1.753268862958
 N        -4.432390809337      2.556542987330     -0.106399254325
 O        -4.494804954337      3.729387283866      0.213966039150
 O        -5.344758983958      1.751319464635     -0.181086137298
 N         2.610408035608     -1.578154855485     -2.977356435515
 O         2.691759392011     -2.794037373054     -2.974414481602
 O         1.860258682918     -0.864637792512     -3.616907886052
 N         4.896982519729     -1.587765341490     -2.112663313371
 O         5.252222002348     -2.230867475888     -1.136902441623
 O         5.480719852223     -1.437299472665     -3.170340584987
 H         2.774370039287     -1.893206738630     -0.284470685775
 H         3.797732731044     -0.496511795351      0.074134414306
 H         1.133401552480      1.945427313388     -0.589699536499
 H         2.879723471384      1.742621804430     -0.660653418420
 H        -1.483906091471     -2.268688575379     -0.663460812267
 H        -3.177866866087     -1.817923630778     -0.396097540127
 H        -3.886962657678      0.166853363353     -0.510972616126
 H        -3.077971424815      0.626534566433     -2.031380315219
