23
21HAAF08
 N         1.194177020426     -2.489848704304      0.040771181110
 C         0.784024748541     -1.215662082935      0.097489793614
 C         1.589014058619     -0.152301326751      0.607834329562
 N         2.933758378140     -0.379766971863      1.134070239579
 O         3.548265574306      0.585889553221      1.572276629472
 O         3.392878883315     -1.532147198548      1.114493597566
 C         1.131186632369      1.154767877194      0.641975156052
 C        -0.131733159616      1.474684981889      0.177994399922
 N        -0.465066602006      2.907175584462      0.155393993684
 O        -1.110342346726      3.315395221390     -0.804360566321
 O        -0.015927944975      3.597147340089      1.067111134637
 C        -0.994229465202      0.483444344292     -0.319515676823
 C        -2.475054029659      0.785965315128     -0.599417489365
 F        -2.694137678806      1.185650883835     -1.849750696730
 F        -2.912486723340      1.730973378706      0.252275304124
 F        -3.229529633735     -0.306791928176     -0.357483655202
 C        -0.504115659618     -0.817253621743     -0.391235577173
 N        -1.291975216023     -1.844626350172     -1.095723505459
 O        -1.391055049602     -2.958055337694     -0.569590537849
 O        -1.754175857843     -1.537985610900     -2.183884610554
 H         0.515474180703     -3.214983072082     -0.149275326010
 H         2.110642211969     -2.701355490651      0.415555665745
 H         1.770307678763      1.929783215611      1.042796216419
