29
22WISKEO
 C         3.212993984065      0.681473148144      1.301532169890
 O         2.653073042732     -0.109681207786      0.248679877800
 C         1.841426549286      0.582688964662     -0.606163928029
 O         0.713127341217      1.126663154377      0.080097891748
 C        -0.434451842444      0.752141665173     -0.653493213917
 C        -0.027830894817     -0.592645489490     -1.286039206958
 O         1.335019652470     -0.317306705206     -1.573641984546
 C        -0.099712256337     -1.958118970107     -0.565555781211
 F         0.318000630589     -2.894042450446     -1.428824065998
 N        -1.526104407467     -2.376019851350     -0.174961391915
 O        -1.626310863269     -3.316379331872      0.587014944110
 O        -2.430324888384     -1.770284453600     -0.738677694885
 N         0.744927719834     -2.093536987868      0.713091864211
 O         0.391013375993     -1.376111872178      1.634850999448
 O         1.656935979993     -2.889409752615      0.679531554034
 C        -1.660016166421      0.932846348234      0.228854195362
 F        -1.803138076793      0.095732967271      1.242961566099
 N        -2.967564414430      0.911889708931     -0.597815715097
 O        -2.862346700025      1.009354595149     -1.810748904288
 O        -3.983278035289      0.817159587544      0.062346545379
 N        -1.603875420777      2.375644697965      0.809988606949
 O        -1.625706708930      3.264343308998     -0.029332357057
 O        -1.538736176674      2.470627110589      2.015518618968
 H         3.746633394156      1.550833761228      0.894527451057
 H         3.915328580046      0.030687762857      1.821778841224
 H         2.431171909145      1.014171977637      1.990231713398
 H         2.375719453139      1.390066246168     -1.124864324704
 H        -0.589169410767      1.435666429309     -1.494234328761
 H        -0.556705349841     -0.748354361717     -2.226853942312
