27
24FEFO
 F        -3.775192612931      0.511790811678     -0.864120291404
 F         3.744175563174      0.984427003819     -0.194088146209
 O        -1.117113406987      1.298317126855     -1.427091747041
 O         1.090174025117      1.765775881153     -0.782979953297
 O        -2.800723960503      0.423982617272      2.171898475626
 O        -1.152337132502     -1.586549384261     -0.186641427420
 O         2.761873738049     -1.935697696728     -1.020162225517
 O         1.112546881191     -0.280277378595      1.599352911984
 O        -3.958867028987     -1.200393470567      1.259623841065
 O        -2.648383922574     -1.550447718975     -1.791899314859
 O         3.916644372296     -1.554611323327      0.805602235710
 O         2.612716710907      1.257312005919      2.048375946649
 N        -3.188342139430     -0.256488786128      1.234127948484
 N        -2.118900781436     -1.131036535640     -0.786474969792
 N         3.149460015375     -1.245519985045     -0.089498295005
 N         2.082142286939      0.424989842852      1.346331133179
 C        -2.697941738451      0.152801236351     -0.162610484317
 C         2.663956818386      0.211365337877     -0.063841454194
 C        -1.628006499687      1.221966450611     -0.105644922619
 C         1.597507790788      0.480186330417     -1.103814453417
 C        -0.011837579705      2.156619972697     -1.563907297643
 H        -2.088957992593      2.165492718569      0.212026681340
 H        -0.864830085454      0.929526592855      0.617805324382
 H         2.060857428186      0.457473810546     -2.098009622934
 H         0.831542811249     -0.295006476766     -1.042871998097
 H         0.225868512462      2.139918595071     -2.633240733732
 H        -0.246932072878      3.172882421493     -1.228947160923
