16
017CID7423
 O         2.832086612036      0.607722030327      0.041522596311
 O         2.256111944465     -1.492392573166      0.000124867088
 N         1.991098004072     -0.289987001306      0.011956711864
 N        -2.723269853402     -1.536299123231     -0.164209377635
 C         0.571985576247      0.101404231766     -0.009630694120
 C        -1.741860324672     -0.556263447237     -0.065980701239
 C        -0.384281140791     -0.905931118443     -0.049010620606
 C         0.250509720429      1.455243414658      0.015833056503
 C        -2.085983549221      0.808375959661     -0.039989072959
 C        -1.101952536517      1.791996246150      0.000002728303
 H        -0.065840905175     -1.940981574848     -0.069925929775
 H         1.034518127433      2.199202893684      0.048144142032
 H        -3.135317412638      1.091483889628     -0.056770857588
 H        -1.394509874074      2.837278171010      0.020775483445
 H        -3.638614983128     -1.275360548353      0.178320576761
 H        -2.449679405065     -2.460791450297      0.142237091618
