30
01KURT08MO
 C        -1.603315929541     -0.186833290435      0.297357337023
 N        -0.365796864927      0.297979280923      0.897223516147
 N        -0.527703457020      1.471197386824      1.680846327424
 O        -1.535964215323      2.126066746474      1.456852788984
 O         0.355064542028      1.721161841014      2.482592136114
 C         0.654516097747     -0.625185969857      1.376647904941
 C         2.021476700538     -0.465698167045      0.688425648794
 N         2.610780934250      0.865722540986      0.950453042005
 F         2.938534826292      0.797698331529      2.314661770378
 F         3.865088550552      0.859386698542      0.349985231375
 N         2.969256624290     -1.587197009003      1.163551111854
 O         2.685384987619     -2.106667774038      2.233529298823
 O         3.928325674553     -1.821852432932      0.453485613267
 N         1.868319754389     -0.664609974676     -0.815961282318
 O         1.487324994006     -1.789620967134     -1.114191911875
 O         2.075060089497      0.276875618028     -1.550246912102
 C        -1.828023714477      0.275577704170     -1.155516314016
 N        -0.790757410492     -0.343202274005     -2.007564446509
 F        -1.232535343273     -1.678989956475     -2.108090155931
 F        -0.960037687728      0.142738141269     -3.290818247155
 N        -1.702660554635      1.791732416587     -1.287727619892
 O        -0.563496068562      2.210979775701     -1.398510897084
 O        -2.739602787608      2.421379127580     -1.212441404887
 N        -3.240690673226     -0.126850296675     -1.620832345099
 O        -3.556336677263      0.207172747028     -2.744944986459
 O        -3.899651083713     -0.782289418833     -0.824138671073
 H        -1.586336554699     -1.276245221623      0.278440263287
 H        -2.461099837223      0.139552302151      0.883334360894
 H         0.807047259590     -0.505082220100      2.448068182000
 H         0.327727824357     -1.644995685977      1.175630661088
