32
021CID141415
 N         0.742673115503      0.492958240267      0.171742771151
 C         0.661191596596      1.159283205903      1.454221881613
 C         1.612642906616      0.610054773289      2.541009972451
 C         2.960660546072      0.113675808885      2.071838212109
 N         1.753730041928      1.741680111488      3.571854655355
 O         2.856217667559      2.230054005012      3.740483218331
 O         0.703049232440      2.084104750691      4.103919040993
 N         0.935588195722     -0.509186015562      3.363763365657
 O        -0.132962385094     -0.959437425848      2.963495614699
 O         1.545353481462     -0.877060756031      4.352855445440
 C         0.060561964010     -0.748722451765     -0.154190888390
 C        -1.320942325099     -0.533333707507     -0.801045032604
 C        -2.278020415482      0.336254932800     -0.012702229374
 N        -1.114175938003      0.026864245451     -2.217420410134
 O        -0.818405205304     -0.779884814209     -3.082656770011
 O        -1.209997377991      1.239506519859     -2.337853198093
 N        -1.976139012830     -1.904298522203     -1.026589800609
 O        -1.374847464792     -2.890826209330     -0.623434818421
 O        -3.068530126652     -1.888199740110     -1.571101021366
 N         1.642377286090      1.006008742047     -0.763839690327
 O         2.295759450110      1.989479617180     -0.424520881886
 O         1.700351447725      0.428087260530     -1.841336262195
 H        -0.359719425114      1.098808539061      1.824041837808
 H         0.910965147645      2.207136027301      1.291458680719
 H         2.819108793813     -0.738590360600      1.401079389009
 H         3.562794400873     -0.195368635547      2.925938950127
 H         3.470495014625      0.910605410939      1.530386447293
 H        -0.093101371140     -1.298302432946      0.772498976143
 H         0.685647932075     -1.342080871334     -0.819041007105
 H        -2.406934443660     -0.083207448269      0.989657754861
 H        -3.245243734083      0.375825061969     -0.515167127803
 H        -1.877448995622      1.347412138587      0.057552924559
