38
02KTNFC
 O         0.606357925369      2.960178943912     -0.958688393114
 N         1.309926003084      2.284728682634     -0.223584479889
 O         2.144091811577      2.664413084203      0.576328091445
 N         1.080923636431      0.905634675483     -0.289384845880
 C        -0.002751597207      0.375601700443     -1.130881095255
 C        -0.080409541029     -1.040734605238     -0.574845254053
 N         1.237711169655     -1.307416582546     -0.068580409385
 N         1.819250232365     -2.572718120236     -0.364694326043
 O         2.969569449848     -2.723241785796     -0.007609945762
 O         1.096160464952     -3.374803182201     -0.925568409958
 C         2.054853190854     -0.100712160514      0.133181507144
 C         3.309331779912     -0.040052381248     -0.832515627262
 F         2.980866116892     -0.676006630559     -1.978132773007
 F         3.578768969728      1.232612576263     -1.149758798224
 F         4.408247538315     -0.578062481128     -0.319986292783
 C         2.441497236761      0.017986828538      1.657685256749
 F         1.411479312469      0.542579317201      2.331449861677
 F         2.684619963234     -1.198521731879      2.155387227394
 F         3.528752927630      0.768182242297      1.839558954219
 N        -1.071168495380     -0.827053050468      0.491051672931
 N        -1.248230911702     -1.790857637914      1.490244917481
 O        -0.587403696468     -2.808151888499      1.348685260657
 O        -1.998891424167     -1.502669591057      2.403104170898
 C        -2.038492244384      0.231801265259      0.203046885997
 C        -2.290786573597      1.186973662601      1.432553794188
 F        -1.190784003788      1.221761305607      2.193396010600
 F        -2.530913606119      2.427269588147      0.995842321448
 F        -3.333473735267      0.793104648012      2.164443958084
 C        -3.367424532467     -0.423852097944     -0.357326762904
 F        -3.158088794159     -0.740137234595     -1.653821912169
 F        -3.620674700196     -1.566709638542      0.292792613655
 F        -4.436193212460      0.354931561030     -0.252489699561
 N        -1.281495227771      0.957408033183     -0.828942478825
 N        -1.927285251669      1.708566588174     -1.851468795292
 O        -1.280948039463      1.896654229906     -2.865200536527
 O        -3.047654174505      2.098583136217     -1.594444445711
 H         0.205254751312      0.453776483917     -2.196090537037
 H        -0.374892718595     -1.811047752662     -1.284736685926
