11
035CID12259
 O         0.259192796933      0.534097488586     -0.000027856443
 O        -1.154525791696     -1.214887047266     -0.000015774848
 O        -1.902953934382      0.845852481829      0.000177531896
 N        -1.045583394983     -0.004095035414     -0.000041662176
 C         1.305337323849     -0.468540284559     -0.000065416275
 C         2.610172356454      0.306293670434     -0.000041106082
 H         1.198039676250     -1.098400025189      0.887542724472
 H         1.198030103482     -1.098330533781     -0.887721602994
 H         3.447591818584     -0.399074948674     -0.000073493212
 H         2.689594926281      0.939277020480     -0.888517024914
 H         2.689604119228      0.939207213556      0.888483680576
