17
037CID164756
 O         0.116447735335      0.129019175040      0.824955758619
 O         2.246020972654      0.225343164559      1.236204734049
 O         1.634986202759     -0.023666708535     -0.847018440330
 N         1.436126529174      0.106125626189      0.346693357416
 C        -1.008619677812     -0.005612233150     -0.135873925649
 C        -0.969946283111     -1.368584198975     -0.826660531923
 C        -2.191389324132      0.075767329564      0.832902286947
 C        -1.029543774736      1.169922724677     -1.112637715912
 H        -0.882507580015     -2.167194080413     -0.083149395082
 H        -1.906430129711     -1.515248697646     -1.375222738865
 H        -0.141940784517     -1.445426446949     -1.531473757579
 H        -2.191058834649      1.030274606270      1.366961269540
 H        -2.149543558675     -0.734930631926      1.565924020789
 H        -3.126229725617     -0.009640644346      0.270237764333
 H        -0.202502548611      1.126262309184     -1.821406311018
 H        -1.969089874244      1.147560218047     -1.674941596874
 H        -0.982779344092      2.117028488411     -0.565794778460
