27
03CUVFAA
 F         0.130002465881      0.393940006411     -1.554443630316
 C        -0.027812856390     -0.596924349575     -0.630542161854
 C         1.349157188194     -1.086506727810     -0.168535445779
 C         2.123128649702     -0.088235065691      0.663314713166
 F         1.575318360572      0.136670962043      1.865466625310
 N         3.574025039709     -0.555087702044      0.925751806088
 O         4.204186360244      0.164072297085      1.678744332468
 O         3.934448236484     -1.587590287063      0.385535105619
 N         2.271427764642      1.263253165489     -0.062860650358
 O         3.022922950104      1.240321358309     -1.023674305940
 O         1.606942546533      2.184671184502      0.367151025217
 C        -0.989679504709     -0.146104572711      0.465841272157
 C        -2.287770732176      0.409716268598     -0.081482281618
 F        -2.904971681951     -0.398706358056     -0.945569727890
 N        -3.292607662448      0.712950575247      1.056348706002
 O        -2.878054945244      0.626932367269      2.201083310636
 O        -4.411411731940      1.009045244851      0.679623727667
 N        -2.084082805541      1.784475574895     -0.765310986193
 O        -1.578649361440      2.631024151065     -0.042454889275
 O        -2.444984230971      1.882697854604     -1.917432855205
 N        -0.642165214069     -1.811300503436     -1.384285584600
 O        -0.755775200531     -1.723407946728     -2.588577294117
 O        -0.926111834376     -2.765302927533     -0.667780163252
 H         1.937410348123     -1.321347802134     -1.057932730983
 H         1.234266794283     -2.000124259551      0.418445919871
 H        -1.214700526876     -0.992313768916      1.116237908698
 H        -0.524558415810      0.633381260878      1.067138254478
