8
082CID7865
 O         0.641820063327     -0.643141463652     -0.000044720923
 O        -1.287404485067      0.553811203014      0.000006925481
 C         1.391160128614      0.586496245033     -0.000026879467
 C        -0.691893935121     -0.495378248785     -0.000024986212
 H         2.439651371780      0.289817109932     -0.000065355490
 H         1.156234046958      1.175710557675      0.890034789174
 H         1.156183772712      1.175767845460     -0.890037124041
 H        -1.161750963200     -1.490483248679     -0.000042648521
