18
19BOTT14
 O         4.711278095501      1.587217092885     -0.934611247125
 N         3.589370836643      1.959238197407     -0.613774741520
 O         3.219569259917      3.103259283636     -0.392635749988
 C         2.572361527310      0.914860811532     -0.478984476859
 N         1.303034513281      1.183551361245     -0.122393666988
 C         0.737719063306     -0.017437917990     -0.115340431157
 C        -0.644507771384     -0.338706763770      0.183630479925
 N        -1.717439354427      0.399880403998     -0.071934323343
 C        -2.720622415092     -0.348352090752      0.422347545967
 N        -4.121217522100      0.072933117819      0.358687557673
 O        -4.334582033026      1.157161164382     -0.164155663556
 O        -4.943465544519     -0.700029081501      0.834554441441
 N        -2.385602531265     -1.513753352253      0.975971446603
 N        -1.081890137701     -1.469739624329      0.805495427570
 F        -0.309350686585     -2.471026967886      1.278545078894
 N         1.705243010567     -0.912050140386     -0.462933673544
 F         1.543158631421     -2.243281805612     -0.620160986854
 N         2.876943057530     -0.363623685007     -0.701707016762
